33
met_c15
C -0.20985124504181651 0.011160136462385346 0.6918488159491785
N -1.55763125839163 -0.11957600214347446 0.532965331852597
C 0.8562390882939807 -0.13467958069285194 -0.29897550812735557
C 1.039942016961034 -1.4174693998216747 -1.0260516869868304
S 2.5684836722154794 -1.4147512090000232 -2.0596935949337016
C 4.035872212183878 -1.4238742656479753 -0.9879459738157917
C -0.01985639820287118 1.4829439853914235 1.244157523826503
O 1.316912323542269 1.741234944547025 1.4417638438893077
N -0.5259258196855007 2.3033106564737245 0.15341717310437167
C -2.338032718375189 -1.2119630158272154 0.2517862252480637
C -0.4760912943595982 3.7125957838219428 0.4853533589208323
O -2.2379244421622473 -2.2201514197105774 1.2809365585624883
C -2.280213723840735 -1.898360958453899 -1.0785338282701402
H 0.1656915057256639 -0.6074092221649158 1.6214963940956981
H -2.0732343510076587 0.493207616439721 1.2473670514543245
H 0.7794444272904757 0.7350350415709374 -1.0817925553922174
H 1.8846738022556644 0.13403042120391814 0.13337445764412606
H 0.23983812098691576 -1.4833238236589197 -1.833554336300773
H 1.010551908715448 -2.264770450526199 -0.3625431811954241
H 4.219828597337769 -0.4621076547244296 -0.48996701719210234
H 4.94415699001139 -1.6761386574514556 -1.5744916845073609
H 3.8884395859383645 -2.1770540909927187 -0.19199697491842924
H -0.6193015591916955 1.5676003787317794 2.1503551190181387
H 1.7642643387908945 2.1529566123181243 0.6378178278435372
H -1.4983147640808112 2.0195263820960143 -0.11778614668150722
H -3.4345499752756465 -0.9048436844907952 0.37194516586655124
H -0.09561260913514419 4.22731415681339 -0.4281978368785573
H -1.5033317187095623 4.021908682166064 0.7570385886195745
H 0.23590751470446733 3.8176303788230967 1.3193527012973933
H -3.1122706111650102 -2.6401167739661724 1.4429450549457943
H -1.5728747502900071 -2.758173657139297 -1.0216009805019173
H -3.28223415958702 -2.391019476287524 -1.3024367414819047
H -2.112994706451861 -1.2146718341593652 -1.9083531449544462