33
met_c11
C -0.27335185462610057 -0.11488254684440642 -0.9703653642097898
N -0.964875862150054 0.9628412776375171 -0.301245105609983
C 0.838671422853046 0.47726545198833387 -1.7675731534855426
C 1.834895042546019 1.2348642948577893 -0.9692298381533855
S 2.7332695813090413 0.277042968829413 0.26259490590367734
C 3.892401743677342 1.3395193542922754 1.1197116175182549
C 0.12324549388054531 -1.245479376567266 -0.08629713965241985
O 0.8205297225120937 -2.2418533893301476 -0.7718579687522332
N -1.0937074615193998 -1.9667343250764184 0.3949979312162032
C -2.1134494771326064 0.5711606171317553 0.447589107190881
C -0.5610081087848704 -3.0265135103163994 1.2654692329583448
O -3.007346677545527 -0.20362093455019586 -0.25958594629356074
C -2.786287836298716 1.8669024099562033 0.9258694664350292
H -0.9789402731246264 -0.5621020488706362 -1.7602414399500925
H -1.1718753158735191 1.6926235590685497 -1.0072236700562476
H 1.3568671566534527 -0.2805379576297636 -2.408588304846053
H 0.3386942632903876 1.2202459602157343 -2.4713181053285003
H 2.59525909880792 1.7517784353926904 -1.6247556512028853
H 1.3285627851253863 2.0878844959836966 -0.44637438191441053
H 3.4488626169942678 1.671355469014041 2.0809727410291763
H 4.079635460016012 2.2457723409018597 0.49927701655462475
H 4.860291553463602 0.8288409996246194 1.3080399997677514
H 0.7172563377186034 -0.9588373842644188 0.79303446848904
H 0.8112118735490468 -2.1297692131745505 -1.751724797995377
H -1.4339810671527362 -2.4633949991459367 -0.4664551431352003
H -1.816965058826623 0.05763732180878686 1.389131307368829
H 0.21879674069690971 -2.6408108244105484 1.9482933577799122
H -1.3768538356978264 -3.451453890876976 1.8680824586068412
H -0.10063680677091642 -3.845148689553444 0.6591024098660808
H -3.3824243930578253 0.3027886711414025 -1.020825192798287
H -2.279840530104151 2.270952192071084 1.8085139146196842
H -3.839098551766509 1.6519253384075157 1.1938473347311325
H -2.8178077826616037 2.6197379322878485 0.11913393334850512