33
met_c6
C -0.2672804554950102 -0.24335462969772947 0.19402589473618118
N -0.897153555753587 1.0706167463703995 0.11740251141850482
C 0.8555026375894507 -0.2373056281687366 1.1900780885560902
C 1.580709059741357 -1.5278986017372853 1.3667906144504671
S 2.344382214506775 -2.136868836214007 -0.17507976081936188
C 3.669772443329308 -0.9778408249921281 -0.6076029604711279
C -1.3683408321757435 -1.1629300409057999 0.660602811899597
O -1.0252709725105968 -2.4781947405327065 0.7849608689361819
N -2.531054508127396 -0.9537984306272632 -0.17758800306360753
C -0.08408774170398468 2.12829293459302 -0.34362623071148746
C -2.207503967586848 -1.3273822153887165 -1.5263978341632904
O 0.7378380942478829 2.6911327332922483 0.6333503787414089
C -1.0556386941253952 3.2682813168183866 -0.7260073118940426
H 0.1326648276557595 -0.5433318995458217 -0.8048617044515208
H -1.8151954717926986 1.04786650880074 -0.3336445974590575
H 1.5891208444547802 0.5936960217039621 0.9705483438152597
H 0.45323096556942444 0.04800075237166884 2.2020598647542413
H 2.410086550690094 -1.3469761922186316 2.1369441169021774
H 0.957166114458035 -2.3214141602776723 1.7811130367424037
H 3.218250482532386 -0.08191733453988516 -1.0419362795925213
H 4.453378024433026 -1.4495807936245615 -1.2390302768462635
H 4.133743272400611 -0.6692780213950473 0.37400136280789936
H -1.6723320292272554 -0.7884501014795796 1.684559001864662
H -1.4512807104748675 -2.917024270204472 1.5593558605631848
H -3.362976987298259 -1.462843829420484 0.15643973719982904
H 0.5549557770014267 1.9145300219821215 -1.22695480653952
H -2.2175087142737815 -0.4078387041585333 -2.168352861831411
H -1.2193537356947508 -1.843157562990181 -1.5433437894466158
H -3.010987250120505 -2.031481075061069 -1.8966953799411672
H 1.00932262303308 3.5948896551418366 0.3203476338908174
H -0.511221251208507 4.165468544405135 -1.0336927540134004
H -1.659821128029224 3.5223621714205144 0.18607962773632664
H -1.7431159260447893 2.8637304862800463 -1.473845203770844