33
met_c29
C -0.330547360708985 -0.05751830096487695 -0.15554265581372573
N -1.1316427809174887 -1.0334820549014374 -0.802628804678574
C 1.122287919248613 -0.36059256297768477 -0.42828901441544076
C 2.07972197068806 0.6111883936272541 0.1658851772058085
S 3.764720725645976 0.033907806307743406 -0.20083946054285579
C 4.207273536292929 -1.4698021220715718 0.6777107242591279
C -0.7069859633438567 1.317719002646349 -0.6330585531725648
O -2.087193593535408 1.4250194423501983 -0.29606330338294706
N -0.07865877333423861 2.3451370101290547 0.1960112063596734
C -2.2663022840552722 -1.5481012010566377 -0.16201474098878202
C -0.497040826057192 3.646706326173166 -0.2008968243635906
O -2.973449541397783 -2.303962659638029 -1.1265431576179452
C -2.127023010489138 -2.2862651903381392 1.0993915990779015
H -0.5227546547384292 -0.0411300809822973 0.9479769763667034
H -1.2288484910247335 -0.8785390896815551 -1.824135451452471
H 1.3861335331539613 -1.3847112536885058 -0.059139508459131795
H 1.2946534225016777 -0.39911954506935493 -1.5164127364536288
H 1.9850750610756198 0.7041107178149617 1.25952546586236
H 2.0414530992421245 1.6175551023295378 -0.32352842536643894
H 5.3240600340330895 -1.523058985177206 0.82347391172582
H 3.938949839002363 -2.3243260425701813 0.023192890648791778
H 3.6689745547435675 -1.5965360309336274 1.641410386476056
H -0.5742196373036478 1.4820784747941338 -1.6958668638162673
H -2.059145739786941 1.4158748350142758 0.7223149102907093
H -0.10843618389217381 2.102600785906869 1.1851273896438177
H -2.9606591902122084 -0.6704487940982473 0.01778480221293998
H -1.238423467517565 4.016457605125085 0.5500428245522208
H 0.38149063550938417 4.343535898192847 -0.26297275088208516
H -1.0096204761005374 3.6251079904630426 -1.1878894845763996
H -2.818731520732007 -3.267882123005314 -0.9931661513624368
H -2.6349264822922773 -3.276384403651189 0.9825844560517054
H -1.1261209907156475 -2.4870071802207825 1.451077477022219
H -2.7140633629819773 -1.7781317698478836 1.9223137060998707