33
met_c9
C -0.4657002798698077 -0.2063775368871888 -0.6255634645499396
N -0.35795983389381175 1.1744693671967108 -0.8755535461262748
C 0.6542349927035394 -0.7767204096455501 0.21452268743214775
C 1.9884699956689318 -0.574426645057899 -0.47500759893449274
S 3.3550402043311465 -1.2016651628134767 0.5299196367474545
C 4.901080524898023 -0.8954132361071251 -0.40423175583217014
C -1.7744082301286128 -0.6432709015025148 0.027533118140696825
O -2.8696484565773717 -0.29338861488925927 -0.741417951675234
N -1.7249784315374468 -2.110068704154133 0.1836547253114695
C -0.40570920197892874 2.118418615249151 0.15166618265276308
C -2.702167762233792 -2.597528365185003 1.143665144598437
O 0.834516877516928 2.6830362247347836 0.49343215552580905
C -1.278534410805983 3.2956546727183222 -0.3031113300488332
H -0.43659132419875957 -0.7431683022992901 -1.5908036658660307
H -0.9378443267240741 1.4612127772770374 -1.6872262898222055
H 0.5227232156637334 -1.8902688091318265 0.2633250117471304
H 0.7002419144583812 -0.4205553645109473 1.2358503551753977
H 2.133171309045481 0.4860916325297019 -0.7720904776847238
H 2.0054478918027208 -1.155671647778854 -1.455397947581593
H 5.606423463045194 -1.6951486210267979 -0.08188460689851737
H 4.723121752149878 -0.9466265732285506 -1.499610794377603
H 5.27204578058678 0.09935540752596303 -0.0739372148594282
H -1.841936917484145 -0.22525741323123938 1.0410604451892052
H -3.383642602679948 0.43329901735753373 -0.2941002864028149
H -1.7921627208754127 -2.5855083942905237 -0.7496432959632792
H -0.8825966284058276 1.777172153511787 1.0968576786225865
H -3.6900967544412575 -2.156813286068562 1.0159034524529946
H -2.742240655558697 -3.7100427314451134 0.9708686402224319
H -2.262765557984092 -2.4772380355226415 2.149444045604678
H 1.3425845937964442 2.962193150779696 -0.28689105919385166
H -2.153564896424797 3.451838994084163 0.3192834074909142
H -0.7049770960823406 4.231784961899143 -0.3400426272643649
H -1.6315764277819609 3.130631779912461 -1.3597180831588223