33

 C   -0.827781698622    0.123493981121    0.411322011908
 N   -1.473520348634   -0.972925886540   -0.306664506083
 C    0.673239566772   -0.051188053837    0.707511103971
 C    1.576073516082   -0.116461298160   -0.525330470278
 S    3.315894542622   -0.503404107754   -0.164501379603
 C    3.872781859738    1.029371334783    0.622178772254
 C   -1.169283790027    1.419784570943   -0.343683779560
 O   -2.562435474936    1.545740443759   -0.452372740672
 N   -0.616307146734    2.563095816607    0.310284685853
 C   -1.721644888612   -2.227282582664    0.375301069209
 C   -0.779963133082    3.812328952041   -0.416529661659
 O   -2.953974487871   -2.752069290658   -0.028196931052
 C   -0.702506214667   -3.322260053224    0.099234986857
 H   -1.335206930353    0.194553090375    1.369945488301
 H   -1.064788034558   -1.128903822935   -1.207718286737
 H    0.808174608174   -0.955633176851    1.290620570470
 H    0.985939694477    0.773899557520    1.333560065795
 H    1.542903441860    0.812071582938   -1.081353246741
 H    1.261815768768   -0.907302028996   -1.197124541044
 H    3.694185827390    1.881280866610   -0.021675740414
 H    3.393222645312    1.191230557247    1.577786926707
 H    4.938675474927    0.932092369036    0.782485626520
 H   -0.738157563481    1.378754749056   -1.342074962249
 H   -2.903999802965    0.694637611187   -0.698552139749
 H   -1.035604082008    2.648454311794    1.217096673780
 H   -1.745583601578   -2.008640477378    1.439597127144
 H   -1.817018228104    4.069159262274   -0.612642036969
 H   -0.322609165385    4.612932488245    0.152923837989
 H   -0.259833726256    3.744809170877   -1.365857004701
 H   -3.600168121583   -2.060058777861    0.009277242976
 H   -0.670287988806   -3.532984500404   -0.965326358605
 H    0.288495047174   -3.037937075859    0.431047740117
 H   -0.991989175180   -4.232796243456    0.609887704993
