33
met_c30
C -0.46054918320150323 0.2641477809689898 0.23336501573525303
N -0.6807316812316289 -1.1402999996711176 -0.07223548489403431
C 0.8313298550449485 0.38134240014101695 1.003900195357711
C 2.0134003390530384 -0.12856736708590796 0.23123092019052524
S 3.4892460990219174 0.04265128289805553 1.2807753893000495
C 4.916713967721923 -0.5572855660584737 0.31800402378416753
C -0.5284910649043053 1.12929730895335 -0.9747411854498214
O 0.39574595572287485 0.9112861447119446 -1.9526521238972767
N -0.5586773563753719 2.5340442460951893 -0.6150469014922925
C -2.057413568231875 -1.4283400930268133 0.2165511821153852
C -1.785278029038629 2.875167090529891 0.12089575695658962
O -2.8357341821492827 -1.0256955562085786 -0.8896131317986431
C -2.3901900394128703 -2.840322751217931 0.5258675120713051
H -1.2599328207714917 0.5794400739929167 0.9255511128835906
H -0.351607458632396 -1.4101392065501464 -1.016854895258321
H 0.704621527846521 -0.34946585090095 1.8649930110938326
H 1.0289830790067027 1.367396338202295 1.4208554215936509
H 1.8348851632847438 -1.1958430877004516 -0.06477260756038083
H 2.2136818414743855 0.40384379700234474 -0.7149890358437252
H 5.271781091060711 0.24947121667082517 -0.36358664868337165
H 4.544603040535263 -1.400077141568738 -0.28284294864665005
H 5.711314341861787 -0.8579719756898593 1.0084249458926104
H -1.556080777811195 0.9511950636494871 -1.4317697427822902
H -0.015198125548832493 0.7562178430594911 -2.8341627159382328
H 0.2349123047041375 2.826244660199252 -0.004720754182876744
H -2.331904169388475 -0.8058560265368182 1.1149980715581655
H -2.6802795400246633 2.392732457953668 -0.36320606287081947
H -1.7509214977168406 2.5420217962188394 1.1789943905125289
H -1.8791301233181301 3.994318439241728 0.06357242378470176
H -2.3876342516509994 -1.4356952746092577 -1.6874870557941444
H -3.5270054479627873 -2.905910102071205 0.5003839624722616
H -2.0788918567764663 -3.1710587919488553 1.5232689598396465
H -2.075567432191188 -3.548289149644223 -0.26295100004909755