33

 C   -0.436385635052   -0.063938338483    0.918206751390
 N   -0.915407467233   -1.402618561029    1.232917805945
 C    0.707571060222   -0.138595591793   -0.107685734043
 C    1.516946399796    1.149536502855   -0.258171384050
 S    2.926414853109    1.004819606069   -1.399513759099
 C    4.054864336780   -0.059570835621   -0.466215781898
 C   -1.579095882971    0.903145871350    0.543714706039
 O   -1.911733120910    0.720967919513   -0.802015788817
 N   -1.203392616075    2.276770543668    0.791893486330
 C   -1.340261864194   -2.306444828759    0.201568136883
 C   -2.255764605201    3.247045521650    0.570076156441
 O   -0.230397152919   -3.094176299404   -0.169937128092
 C   -2.456153916431   -3.204031310108    0.721231378868
 H   -0.018475535837    0.310979849407    1.850645311242
 H   -1.546439884096   -1.393386602287    2.004841485218
 H    0.318539866993   -0.421727284201   -1.076052159606
 H    1.348952998593   -0.945234411933    0.219875512987
 H    1.889187632672    1.492836187568    0.701962322266
 H    0.906786493183    1.942216380215   -0.662322277909
 H    4.280351629718    0.369514839356    0.502659074299
 H    4.972930122962   -0.126070887106   -1.035920214866
 H    3.657472362026   -1.057020080752   -0.336318706830
 H   -2.452011914950    0.632060728751    1.149439466237
 H   -2.769191963258    1.080412492877   -0.978878067758
 H   -0.853756379918    2.363160835349    1.725209783222
 H   -1.688232049023   -1.769742905750   -0.674299672276
 H   -3.192285463269    3.003170273010    1.080625276254
 H   -2.459207759970    3.338955647292   -0.490032923958
 H   -1.926152074257    4.218021569983    0.917702373064
 H   -0.384310257587   -3.462022190680   -1.029296759603
 H   -3.347690648699   -2.630817957009    0.960149596493
 H   -2.120760594265   -3.728074682669    1.610014851670
 H   -2.723540006937   -3.945014229447   -0.024818992319
