33

 C   -0.776749667175   -0.242562880790   -0.509350648888
 N   -1.929161834061   -0.148207500043    0.388089714904
 C    0.398868704644    0.628814416812   -0.049560166598
 C    1.676413962664    0.426504279483   -0.866604444711
 S    2.984577133438    1.644605707508   -0.526664585692
 C    3.534426898141    1.128824652421    1.119561694383
 C   -0.421362633114   -1.735681451500   -0.603137447002
 O   -1.557864639553   -2.467651853084   -1.042617355888
 N    0.041964456016   -2.237877603076    0.643045095829
 C   -2.647794295516    1.092885143961    0.528054663252
 C    0.390684131961   -3.645274315928    0.663792797998
 O   -2.680006360010    1.771609038146   -0.707932829789
 C   -2.124275606230    1.991010317094    1.644127035437
 H   -1.048328412441    0.075652999235   -1.515838301938
 H   -2.574156117527   -0.851393030229    0.091332644077
 H    0.107969868272    1.666085226200   -0.145203083570
 H    0.594277621057    0.430951586800    0.996651423951
 H    2.091472617507   -0.560719156207   -0.712858538496
 H    1.471051118604    0.534804493702   -1.926631034425
 H    4.389305354191    1.741640905658    1.374856707115
 H    2.766815905423    1.278027338591    1.866664153493
 H    3.839453986308    0.089885205726    1.117479959025
 H    0.366029941047   -1.873749976798   -1.336584745434
 H   -1.706896427375   -2.305197237968   -1.964651519177
 H   -0.616139972075   -2.012213347426    1.361821315326
 H   -3.661382673611    0.807708749520    0.798842776619
 H    0.787240138583   -3.895057448554    1.641141176601
 H   -0.442154994129   -4.307554728625    0.444630036352
 H    1.172346508426   -3.833508275358   -0.065366982154
 H   -3.079243440998    2.623508525926   -0.597359737178
 H   -2.099806858769    1.437902133698    2.575367135097
 H   -2.787488761761    2.843254936844    1.777033119162
 H   -1.132840113538    2.369221588193    1.438973918292
