33
met_c24
C -0.5121283335644381 0.10645278814370536 0.3096447462575797
N -0.6447555275801542 -0.8857000195204897 -0.6655082975179804
C 0.6819771783549513 -0.26670497351808126 1.188054997096189
C 1.9273963692949692 -0.31829641824654115 0.3095232790447691
S 3.3430843988304133 -0.7364622238210613 1.343869869612919
C 4.859213937381832 -0.857729891165826 0.3371925044890326
C -0.4722048652351982 1.5223632258041893 -0.10403171969211521
O 0.5282931319023109 1.9082797640736109 -0.9536214038224023
N -1.7457421828767654 2.018166048368108 -0.53806717616946
C -1.1605181481040516 -2.1528880528641334 -0.4792660362997384
C -2.008613975286299 3.3443831839548324 -0.059891522438237706
O -0.9559165860080261 -2.550082280866625 0.8976220254709536
C -2.7144151276092137 -2.2122628979849743 -0.6084466788075571
H -1.3835335793296348 0.041239333339368835 1.0657737852553448
H -0.6747197285722529 -0.5175965673640297 -1.6538894394237023
H 0.8222852163675595 0.5603159546756952 1.9030697346647996
H 0.5352450595375684 -1.2151454864161808 1.6728897377663114
H 1.7832195097772363 -1.0584319822223152 -0.5007452327645645
H 2.164025399835419 0.6789960381062774 -0.12588170814570085
H 4.538788460411498 -0.6726709668831988 -0.7331989492923232
H 5.273321557033604 -1.8630677964210474 0.43454620020382245
H 5.5999775850099915 -0.11849007649433582 0.6507396526445519
H -0.2916093736162636 2.106032237127416 0.8838981772031241
H 0.4078530632851115 2.8716056075186986 -1.1636912219044528
H -2.0006569227933984 1.8309307369932697 -1.4956648397733634
H -0.7424102627176733 -2.923109028703949 -1.0977311129066714
H -2.9592595544302673 3.6768483558443745 -0.5707416654449424
H -1.179448357587892 4.048442212287217 -0.36068441829701925
H -2.1107657465530845 3.350426972172885 1.0458602842750166
H -1.7988041797856724 -2.9421004331977256 1.266686041226466
H -3.026550223644591 -3.226356202719964 -0.3631986702035621
H -3.2114485467638985 -1.421756124206859 -0.10618792060183596
H -2.8711796449636546 -2.1256310357923462 -1.7289230217052547