33
met_c31
C -0.5704961338646052 -0.21781221756477237 -0.0681525112287742
N -1.333627232727032 0.8609140379992496 0.49837131842191923
C 0.784277406188436 0.3555152196009599 -0.4225249319335221
C 1.700083859387071 -0.6675345842576502 -1.0268901131028245
S 3.284690866014303 0.21162994284887868 -1.4091267142185073
C 3.982027223220962 0.6833849735668093 0.19762894406780085
C -0.4343572089780228 -1.2613316454405814 1.0195326722589606
O -1.7707529564621012 -1.5882117799633846 1.400748102990372
N 0.16138828051315257 -2.4533650459262226 0.45828310484419116
C -1.6361894505218861 1.972370318986848 -0.2746654262627054
C -0.6236967569477055 -3.111050030607463 -0.5305516666779997
O -0.5976580551144981 2.895274391960835 -0.3741821007875143
C -2.8085731259743842 2.7052701242210717 0.39903971204062216
H -1.0791452079609147 -0.584454381356435 -0.9590864454060674
H -1.3262078693064074 0.9327497086403641 1.5173209201196296
H 1.2484986419847832 0.8376155398136308 0.4607316406236008
H 0.6113116704220499 1.1294009374970382 -1.2102908176208027
H 1.2949975802262537 -1.1016989828308337 -1.9497360752587025
H 2.017704823319331 -1.467351334017029 -0.3174989387996847
H 5.061713477672409 0.512184688606573 0.22875149177930054
H 3.493914640563508 0.12973725184526266 1.0436565392442765
H 3.770851952445949 1.7519745131411169 0.38859936108402654
H 0.0914759314805518 -0.8721807625636779 1.8947140089052033
H -1.7260247423840356 -2.246380068360141 2.1396872341708524
H 0.5811069745712071 -3.0564750216916727 1.1806903457145335
H -1.9786099755750663 1.658637988222363 -1.2930047865397394
H -1.5068263588576782 -2.5239297247053067 -0.7780718649424561
H -0.9559236212165264 -4.142117730740434 -0.1833598600893067
H -0.011143724896645068 -3.2230906443178156 -1.4616643609837612
H -0.5054523001278254 3.309397846437203 -1.270484003679466
H -2.452324180510907 3.1604347137567155 1.3487340225567563
H -3.1914277630404806 3.489234720921272 -0.302432647006795
H -3.575606663543263 1.9212570362771213 0.5690782578289991