33

 C   -0.906944269501    0.012043360293    0.245132705527
 N   -1.667907855944   -0.860571636192   -0.638479219222
 C    0.602964665412   -0.310021189381    0.275225918178
 C    1.417857632879    0.459779781589    1.318927073329
 S    3.121542085327   -0.147580387395    1.529862457002
 C    3.895912685698    0.401646928406   -0.011206409464
 C   -1.268600192601    1.447070898229   -0.163767745005
 O   -0.859898258710    2.315864798558    0.869411701737
 N   -0.723546577194    1.781028027101   -1.451102477414
 C   -2.003771598227   -2.177395050687   -0.217265393812
 C   -1.274671029738    2.967550522834   -2.075612774193
 O   -0.862804749616   -3.016517527363   -0.212951059842
 C   -3.073144839776   -2.759943663587   -1.131847858029
 H   -1.305372434073   -0.121096516151    1.245841316115
 H   -1.298256050584   -0.849419930924   -1.568251480808
 H    0.698815547724   -1.367175168839    0.473733023869
 H    1.017011198124   -0.154274899420   -0.717558389595
 H    1.452461004536    1.519366268348    1.114832786036
 H    0.965164023678    0.350648460145    2.297617845871
 H    3.492356389839   -0.113255567642   -0.872978641499
 H    3.784738963142    1.471629661635   -0.141478077959
 H    4.951169314865    0.172194142470    0.062067888561
 H   -2.347442200784    1.480275634980   -0.255785716025
 H   -1.276941217873    3.159245989793    0.764669068705
 H    0.271718183745    1.861794512176   -1.384844382461
 H   -2.391759351359   -2.106879729661    0.795511998895
 H   -2.339285819424    2.832941861056   -2.230670374498
 H   -0.816151038716    3.107759645643   -3.047030187948
 H   -1.127344852794    3.886688945266   -1.504794255510
 H   -1.099071880285   -3.879626842833    0.099436971082
 H   -2.703555707557   -2.809998585072   -2.151152689481
 H   -3.340437985361   -3.767218621964   -0.823474316693
 H   -3.965288564112   -2.146044245608   -1.112963791818
