33
met_c26
C -0.5508930762909889 -0.04487025937000175 -0.6721040518392447
N -1.7183674252518542 0.022002681852298887 0.07185920820927437
C 0.5996902962684053 0.8239606623566059 -0.317873689775525
C 1.791763472898399 0.6245649619264544 -1.2244625527258344
S 3.0894358688576076 1.7752596895473376 -0.6199448678129901
C 3.6569779148212715 1.2703229784113272 1.0371053747572732
C -0.15206673608968546 -1.5339112264162023 -0.666416177941077
O -1.190498566764094 -2.25716977272363 -1.2492284218828034
N 0.09653952526561686 -1.9618230847489968 0.7143454875166867
C -2.5361439849882736 1.1403958487101402 0.18655664116191628
C 0.4020218457698868 -3.3739817120981432 0.6741871926303641
O -3.13524486280353 1.5624324664206948 -1.0061483700576037
C -1.8274446674451477 2.277096217166163 0.8796188825589313
H -0.7966970499984418 0.1641338915460472 -1.75014784995487
H -2.325235548544486 -0.8179996924078741 -0.1734888910595039
H 0.30372046601954267 1.8893110446850243 -0.5196434428817386
H 0.9599965909328463 0.7766754457985903 0.7057366293509056
H 2.2438367231513774 -0.35875280256206327 -1.2011396543213044
H 1.5949428816713191 0.9331763743204559 -2.269818014736219
H 3.7402476411863277 2.140710087863236 1.6906321897405054
H 2.984670861311298 0.46818326455002246 1.4418168955432498
H 4.68525714704359 0.8228800272537075 0.9132103967183886
H 0.7551635074217863 -1.7378805327317488 -1.2230263618457686
H -0.9807577227346671 -2.3363741328557257 -2.2135383464072813
H -0.7084705319524583 -1.813835725822022 1.3269414753929387
H -3.4394934788056535 0.9122929088422952 0.840604685606327
H -0.2535843626775279 -3.942661742351421 1.3990065490980343
H 0.2169858731961676 -3.8372178928231464 -0.305173659551725
H 1.4425844719504919 -3.5516635271066335 1.0289841556064194
H -3.923111823712467 2.1466025324867055 -0.8371847772591987
H -0.9552793069717449 1.9483590720868182 1.476310245020726
H -2.503593105486128 2.7556401920816262 1.6598364108560415
H -1.5669528372480306 3.1141417561125175 0.20258671028471772