33

 C   -0.683094541829    0.300602122102    0.836012753707
 N   -1.582068891891   -0.081981107314   -0.245362601500
 C    0.650176859297   -0.470013634369    0.816934846083
 C    1.408373225739   -0.520916478609   -0.513169145243
 S    2.774290478069   -1.723570483824   -0.536166204218
 C    3.990355314285   -0.916186679281    0.535047022370
 C   -0.518322722853    1.827662025362    0.805578888542
 O   -1.770468358767    2.432882064575    1.088741574771
 N    0.083195452951    2.285156363879   -0.403390538345
 C   -1.960223806602   -1.469206470440   -0.375226823189
 C    0.298111460962    3.712895674260   -0.521559385778
 O   -2.742531305125   -1.508928519469   -1.538679001807
 C   -2.745219354732   -2.036276228298    0.807426302490
 H   -1.128901595742    0.099578742551    1.810887431337
 H   -2.430571380014    0.443999109760   -0.160352964107
 H    1.285333793575   -0.032869982981    1.582233257477
 H    0.460240120273   -1.487534618390    1.142801290371
 H    0.751880305704   -0.829246290599   -1.315644713647
 H    1.793278778816    0.451246619937   -0.777250333421
 H    4.891842017496   -1.514236286388    0.501693398839
 H    4.221336330015    0.078820514640    0.175146516180
 H    3.653300054428   -0.860580776835    1.561697071278
 H    0.116740696512    2.115493293243    1.634319107831
 H   -2.202882701892    2.660849301684    0.277495119042
 H   -0.369220598210    1.890744791072   -1.203898452376
 H   -1.060449498714   -2.057225980975   -0.517875213311
 H   -0.613234100148    4.309397686684   -0.518591421991
 H    0.832537933482    3.915088150810   -1.441952017127
 H    0.914867279128    4.052778499908    0.302949048816
 H   -3.078438626325   -2.385333567959   -1.665266336241
 H   -3.027351960727   -3.069397899560    0.619646687600
 H   -3.651461476037   -1.459949518574    0.966173387854
 H   -2.160383156243   -2.021659148935    1.720115373729
