33

 C   -0.027208257525    0.126944596975    0.337047724577
 N   -0.705178177768    1.313348296014    0.836237929412
 C    1.244198035832   -0.090358938617    1.175807585067
 C    2.190873746368   -1.226513066780    0.769677557828
 S    2.783930483027   -1.226558368247   -0.951605808152
 C    3.774590674660    0.288035730753   -0.994590000059
 C   -0.956790472547   -1.100591182026    0.353594779958
 O   -1.558517085925   -1.250144548069    1.616031758178
 N   -2.031146651147   -0.954208559486   -0.593057005020
 C   -1.058718601573    2.341464235644   -0.101058487414
 C   -2.889709962698   -2.121007441413   -0.710399057493
 O   -1.809105998579    1.891767719953   -1.203568673529
 C   -1.793890253864    3.459145823534    0.623774632249
 H    0.269274817642    0.298085190248   -0.690886784964
 H   -1.472733544786    1.058072206055    1.424605328882
 H    1.785348798348    0.848560497881    1.170628814425
 H    0.958207984700   -0.247795833356    2.214134315830
 H    3.054621412662   -1.218528855914    1.425310447297
 H    1.725889178564   -2.197584636712    0.892543324439
 H    4.262168629836    0.318855370914   -1.960074435831
 H    4.534167127285    0.275464952496   -0.222782889050
 H    3.163486761647    1.174268565939   -0.888941303860
 H   -0.375165681160   -1.998747575935    0.138595962315
 H   -0.980079061416   -1.723082255036    2.196413545308
 H   -1.642959410582   -0.723154179130   -1.486531353048
 H   -0.145299665542    2.734800469643   -0.531607980624
 H   -2.340988116796   -3.036763293730   -0.938873243234
 H   -3.609332703096   -1.949280787373   -1.501644572774
 H   -3.428914609713   -2.268947515869    0.213608562285
 H   -2.412424785764    1.221402598332   -0.902142377615
 H   -2.049304353429    4.245746516218   -0.075980120493
 H   -2.718202686516    3.085044649518    1.057601794668
 H   -1.183727973952    3.872498231352    1.418876301790
