33

 C   -0.714458050768    0.150654698453   -0.139478460733
 N   -1.516208343714   -0.978840714943   -0.605277404205
 C    0.794802308470   -0.157000287467   -0.266667308318
 C    1.674053967482    0.494265250263    0.800906157854
 S    3.443645249408    0.099354152253    0.666448903088
 C    3.480384014337   -1.628454287713    1.204980304581
 C   -1.109303459969    1.394217366756   -0.955980066002
 O   -2.510930581685    1.564671784070   -0.979546379136
 N   -0.397114160660    2.551733677156   -0.510728503626
 C   -2.067464645246   -1.859533868322    0.406716389129
 C   -0.589798940195    3.746369371397   -1.315407317014
 O   -2.964900053669   -2.720799323124   -0.226306110278
 C   -1.006571568429   -2.644818312872    1.163448686734
 H   -0.948231775020    0.369433144717    0.909451887620
 H   -2.300434001936   -0.628828290430   -1.119237200521
 H    0.913368229208   -1.230346169381   -0.228173386137
 H    1.141677750846    0.150103424740   -1.247547289975
 H    1.338636745579    0.223144719201    1.797917229859
 H    1.624503957249    1.570170889903    0.721515809923
 H    4.520013371794   -1.927684235471    1.238105659083
 H    2.958244479214   -2.279899119357    0.517100204096
 H    3.059070082453   -1.735501353568    2.197224121843
 H   -0.850338062316    1.220372362742   -1.991847531534
 H   -2.833726919010    1.710372754917   -0.098986934442
 H   -0.596297527683    2.742383761416    0.452827596307
 H   -2.674053679740   -1.311081380358    1.127039592623
 H   -1.624781326890    4.073172110343   -1.373186016802
 H    0.008727709471    4.549522908927   -0.902853507768
 H   -0.238890654265    3.556738314279   -2.323152052975
 H   -2.503801232236   -3.157416956120   -0.932339105199
 H   -1.495070895527   -3.325397364491    1.851102024677
 H   -0.401277305239   -3.223631540730    0.472561730725
 H   -0.349892092049   -1.998650526464    1.735591240940
