33

 C   -0.506055966892   -0.113835128757    0.206769975915
 N   -0.961266552298    0.566232806201    1.416434131493
 C    1.003004310493    0.107624941969   -0.051720598856
 C    1.397297266952    0.116189769206   -1.528906063105
 S    3.153059141334    0.474709557136   -1.841523248844
 C    3.932790806229   -1.080040638828   -1.337277218216
 C   -0.854389473144   -1.608931168874    0.348159519260
 O   -0.092021881669   -2.412808563608   -0.511083507684
 N   -2.236255765123   -1.909833348385    0.049094254604
 C   -1.205648172102    1.977417601730    1.315670180805
 C   -3.291186836237   -1.293109343343    0.840419119897
 O   -2.362075913445    2.130458017212    0.532674548123
 C   -1.406598939370    2.570783538783    2.701817118265
 H   -1.083503991054    0.287892351476   -0.617252536662
 H   -0.346153480982    0.373434416973    2.181855697134
 H    1.289030187065    1.065785281860    0.368981500213
 H    1.573312480169   -0.647110041028    0.480100169414
 H    1.150255466207   -0.819472860847   -2.008651002960
 H    0.857787374004    0.900721828274   -2.048689963244
 H    3.517797494970   -1.915947979002   -1.885752958089
 H    3.828159495813   -1.258911906506   -0.275873121039
 H    4.986118703075   -0.997079760472   -1.572003955644
 H   -0.562873999910   -1.918010144182    1.352678852909
 H   -0.526591661029   -2.405092422485   -1.355558911100
 H   -2.325495024219   -2.905815373150    0.112267429175
 H   -0.387360524288    2.504194072350    0.817212923537
 H   -3.350232412952   -0.236179506327    0.641277287185
 H   -4.229648400873   -1.751212413502    0.548099068467
 H   -3.162760356028   -1.426274379079    1.914164651563
 H   -2.416542159907    3.023209303504    0.221445846856
 H   -2.219472491088    2.057890635034    3.201799955317
 H   -0.506421231153    2.482622222425    3.303504322822
 H   -1.653991991168    3.625113671327    2.628608889659
