33

 C   -0.781804833604    0.420470877983    0.397671140889
 N   -1.241306430967   -0.949717224583    0.661231483259
 C    0.654865406568    0.572123289944   -0.124839436300
 C    1.707909392139    0.095353626649    0.874771949174
 S    3.427593514108    0.335518584368    0.333338665519
 C    3.611027879628   -0.994860624000   -0.881196686069
 C   -1.816673212845    1.124087459868   -0.517989064071
 O   -3.095814163139    0.922967965554   -0.003574446911
 N   -1.642078506450    2.539476973898   -0.696981688358
 C   -1.161175173833   -1.961604014860   -0.348007061529
 C   -1.624539128302    3.382542073455    0.479755715613
 O    0.174517363017   -2.408829501397   -0.482871528111
 C   -2.069467427059   -3.129278772267    0.012704335134
 H   -0.844122168237    0.912699629130    1.363039653401
 H   -0.874956267633   -1.300174195166    1.523442385302
 H    0.764744510315    0.038890032575   -1.061470867295
 H    0.839593153774    1.620393055936   -0.331450377017
 H    1.626363994259    0.662829322059    1.796141075109
 H    1.571694454210   -0.948967473294    1.116871457414
 H    3.398168903264   -1.956745658756   -0.433613097542
 H    4.641590377674   -0.980879821675   -1.211867081864
 H    2.969433313595   -0.848022655204   -1.739354656562
 H   -1.745582403675    0.693983178435   -1.515655341376
 H   -3.081940503326    0.106031533985    0.480380693921
 H   -0.887854409627    2.739920198991   -1.318438858058
 H   -1.486541895691   -1.529638678214   -1.287781275035
 H   -1.665284222737    4.419045051875    0.165844887412
 H   -0.745969945670    3.262290513327    1.116327882431
 H   -2.505942404988    3.179422328222    1.071524125578
 H    0.217541108480   -3.103130210072   -1.126907155021
 H   -1.775795052138   -3.549293951666    0.969461244716
 H   -2.004099641951   -3.916008161092   -0.733856017858
 H   -3.101173524964   -2.805326520135    0.075126198984
