33

 C   -0.523306144683   -0.049523164334   -0.787224001934
 N   -1.223946193481    1.007434935260   -0.062665511170
 C    0.696897003677    0.570813609988   -1.493976229971
 C    1.709662225616    1.324172146150   -0.614053015301
 S    3.028521554192    0.260873249273    0.058817952058
 C    4.024136889843    1.533835926892    0.869860237033
 C   -0.142348364702   -1.233633641629    0.116280905798
 O    0.671921357117   -2.136209342644   -0.602666267954
 N   -1.304033755150   -1.854962995234    0.679541071187
 C   -2.619501706235    0.843342629625    0.260512997665
 C   -1.040980439764   -2.969091963752    1.571309259016
 O   -3.411621968759    0.415031957888   -0.828950461499
 C   -3.157973277708    2.142551898011    0.840351713676
 H   -1.155335320874   -0.454501711315   -1.581197031758
 H   -1.100869319548    1.872240172416   -0.552884636028
 H    1.205261106551   -0.190132676103   -2.070248598223
 H    0.306946490053    1.286607581495   -2.215324468639
 H    2.192042800035    2.085496253288   -1.216503828349
 H    1.207090373258    1.820814232323    0.205623934171
 H    3.462326059827    2.038797957360    1.646247085054
 H    4.387216932591    2.264151443624    0.156516430893
 H    4.874547800319    1.041431012553    1.323654103289
 H    0.479187211714   -0.888816916940    0.927246957878
 H    0.172556856548   -2.512431434088   -1.316469207783
 H   -1.962305756136   -2.109105996103   -0.032396299865
 H   -2.710396213651    0.052921107072    0.980734895930
 H   -0.432575713365   -2.625389652753    2.400085338317
 H   -1.980527918972   -3.328062053494    1.975285944823
 H   -0.523115360881   -3.800278312029    1.099128623661
 H   -3.465321072049    1.106633043111   -1.476019330936
 H   -2.593711179085    2.431834729145    1.718752627805
 H   -4.200176514674    2.023912191727    1.111867468370
 H   -3.090654214061    2.952036606608    0.114033588731
