33
met_c22
C -0.3786566474061175 0.1792566409462827 0.20709612147709158
N -1.502647838535824 -0.3178235123853443 -0.43779461498598804
C 0.7597351894123526 -0.6573965195076628 0.5805311248324918
C 1.3978926034532624 -1.3645136975114671 -0.5936604974497665
S 2.8534382649082235 -2.297536085857595 -0.11093906400087554
C 4.239173766893166 -1.2037034103922253 0.3313199799598893
C 0.06460769978834972 1.4979740184486892 -0.45586126575795777
O 1.1615316439656556 1.9565465568366043 0.26286775802574486
N -0.9887886385702274 2.454034579613502 -0.38767816798424864
C -2.463836582000323 -1.140299851876782 0.15411941594398582
C -0.5346820403840298 3.8069950936190824 -0.2630974986313947
O -3.5479437703852597 -1.331939429636403 -0.7716257013199164
C -2.0971399768309635 -2.4973477894063603 0.6248018029857605
H -0.7712179800709649 0.6073483106784027 1.2361975378511387
H -1.3256436366859827 -0.5922483301906218 -1.4505647676482263
H 1.572574859940015 0.09556340095479668 0.9301990209780713
H 0.6556582647538387 -1.302913166249157 1.4488715991431087
H 1.6381344620327694 -0.5920249640171161 -1.3528352284513376
H 0.6736196741875753 -2.102593506516933 -1.009047991258578
H 4.293682996171524 -0.30451603548176687 -0.30980795728058336
H 5.166415582341058 -1.7687442792574244 0.17355617572271276
H 4.207749930104641 -0.8696456312080405 1.3683347916256696
H 0.39085795841558163 1.2928489314235294 -1.4939530451897303
H 0.9320921942233746 1.9956001653032216 1.234475047711945
H -1.6824695199111908 2.3494850408800456 -1.1535612542254792
H -2.9360142615097797 -0.5945173835152464 1.0448361244880207
H -0.126308611644849 4.014419165858972 0.7264613264243103
H 0.25196588278959375 3.9397746202023387 -1.046193444692151
H -1.3674863117908924 4.523457160820206 -0.4950870706061232
H -4.359154763313959 -1.047709180336468 -0.32875489832929405
H -1.0481247178219257 -2.701586580560251 0.8521032453095294
H -2.426277257298022 -3.2949205810944764 -0.09514917810317207
H -2.702738419220597 -2.731323750584063 1.5756716317921655