33
met_c3
C -0.37169907354010306 -0.37967416553203115 0.026656697428263907
N -1.132522618140377 0.7325309508021363 0.24913166242528048
C 1.042958096554377 -0.47307100180894035 0.45875830793718536
C 2.0709316720345083 0.4637095949462877 -0.030555448196886117
S 3.6675784169398202 -0.15329610999551843 0.7374451372958388
C 4.937933237810988 1.0388010818171658 0.2183569867355801
C -1.0433480765496963 -1.6687213418337394 0.6295976362039564
O -0.13732820470963636 -2.6780559451231607 0.30426548316259916
N -2.2992878716684073 -1.9099239595060946 0.00031706800209273895
C -1.0072343413258458 1.9813639814889916 -0.3452483810060728
C -2.537899642739973 -3.347995142911509 0.06560258880714447
O 0.04015733484084236 2.8023926601444544 -0.06675421624528496
C -2.261356116903546 2.8201245719409274 -0.009437379008936757
H -0.39900490120697 -0.6971016986178508 -1.1063592516266967
H -1.9974744651275764 0.6475470856113529 0.8124711005259913
H 1.0716827365763562 -0.5476199381768168 1.6018534850515
H 1.465471170650161 -1.518491346227073 0.19827994338882773
H 2.17638378986649 0.40246026833797327 -1.1113679543092783
H 2.055839469207175 1.4908463400616379 0.3836343638088555
H 5.793019476024735 0.9157848386953018 0.919352070148058
H 4.525383971408386 2.0706863077769304 0.20425521664740967
H 5.254356736114198 0.7615281229108758 -0.8053876333115163
H -1.0938413097423432 -1.5683839979295477 1.7381122897342545
H -0.18385194791429696 -2.90016198919012 -0.6589484341801884
H -3.077622001762935 -1.4647964217428457 0.4976339736782329
H -1.0022288501926442 1.8473784566288913 -1.4787705898085852
H -2.167499449265667 -3.748457732859868 1.0366832597876634
H -3.622359284808087 -3.5641969538883442 0.05097056469731625
H -2.0028736592913585 -3.908126893298689 -0.7184385964094675
H -0.13223383035557598 3.4286342440882427 0.6785849100875205
H -1.9905607227731654 3.608143668721211 0.7201824967874555
H -2.5930151970278765 3.326745017782951 -0.9362413642521248
H -3.0484545429816206 2.1893974468867157 0.44007467369191844