33
met_c28
C -0.019470609054851873 0.2905246809554915 0.7180507484052103
N 0.08814338911865705 -1.062608604405491 0.27166371153344576
C 1.2430932193857134 1.0604910230187024 0.7863296951409999
C 1.9814241234186756 1.2200483630148973 -0.5083890921669227
S 2.5529282582850867 -0.3204962397017313 -1.2480394170024696
C 3.8302738081262007 -1.113572577160003 -0.21778612797355779
C -1.1053216118415135 0.9990367274769619 -0.05922501041938208
O -0.8963394459890238 1.0394382762501502 -1.4244103960002448
N -1.2832181845246042 2.3707825183488365 0.4312439266801645
C -1.1813810690388593 -1.7689295634926074 0.5384158576418668
C -2.6698040901789972 2.7198634444577445 0.1901843922031007
O -1.612662331624639 -1.5480146059242186 1.8336998971614435
C -0.9374595474462614 -3.2662340998093047 0.3023685244288861
H -0.3960540585460678 0.207652641593842 1.801732910466666
H 0.32517775807525884 -1.1340887116988987 -0.7198906595807155
H 1.9775947646741305 0.5205920890162697 1.4726939968434232
H 1.1239060000625618 2.0482454514986097 1.3107103112954865
H 1.3712207153207323 1.7720125226574426 -1.2672310283540493
H 2.908565249510579 1.843868442410496 -0.33354152736374887
H 4.505941642104668 -1.7546755071382418 -0.8465083315162127
H 4.394634823507785 -0.2955920858141113 0.2603505872123687
H 3.3699362180433274 -1.7953585630031446 0.5299313651833227
H -2.0763323851311104 0.49427194802109387 0.13075540175115655
H -0.5151967864067035 0.2556708975170636 -1.8427121970070037
H -0.6322442334648212 3.0216260255168743 -0.07047887460845356
H -1.921951485226666 -1.4707516228212865 -0.2442899992955367
H -3.142322122530964 1.994536729563823 -0.5068234205904816
H -3.204292623871051 2.5469020021883177 1.1685298036644538
H -2.815670173806214 3.762959350210735 -0.11625828035222208
H -2.5523093089987126 -1.8096281592295154 1.8900943605048068
H -0.013647267443843872 -3.579525657227152 0.822568478859055
H -1.8510215462023079 -3.8061339026657643 0.6916064034785538
H -0.8461410883061372 -3.442913233625798 -0.8064034642553729