33
met_c7
C -0.3466638333939682 0.12213083605634598 0.3622284162108334
N -1.5191538554203659 -0.6232660990701403 0.1291186013701653
C 0.9141459158036382 -0.47149407522543013 -0.1843147010076269
C 2.140994704449815 0.33412077170838206 0.07212846589205989
S 3.5644690900759586 -0.5539037747721275 -0.67158092413729
C 5.100868262701938 0.332222879707324 -0.42690446932936466
C -0.5850997952521888 1.5354741119455992 -0.11849725550888723
O -1.6928740676281708 2.004627013775688 0.6319471438603017
N -0.906373860427404 1.6635325942848798 -1.4949402800704035
C -1.5972947274595461 -1.9257266060442513 0.6979813479890207
C -2.127665080468983 1.0430818950052438 -1.9212946920204268
O -2.8484868890888957 -2.4511167308231108 0.30669328163629184
C -1.5618027259686238 -1.9774292096950574 2.1942120825678377
H -0.2118896535024354 0.21232893630632313 1.4816483833713303
H -2.38143552958845 -0.11341556291512236 0.4098596643119791
H 1.048305004924859 -1.4625379470809579 0.31095224982064995
H 0.8637644373315422 -0.682198283217997 -1.2670464116049436
H 2.0877024459774165 1.2981838604416054 -0.5087236978656612
H 2.3716530787544112 0.5733215967084534 1.1036371158345952
H 5.837176216298273 -0.037056221039501104 -1.1908938369018767
H 5.001277393910438 1.4184885536602845 -0.4342737450478473
H 5.524049557190074 0.0157324022484388 0.5536668896791737
H 0.24095706531893754 2.217646016761787 0.20309012037696125
H -1.867327797038665 2.968217220276465 0.4263851528873935
H -1.020483282495431 2.696711589513478 -1.6960407466618967
H -0.8581428380597886 -2.6473015113272864 0.246094061687123
H -3.016933902851959 1.3666803101531078 -1.3204282299206518
H -2.081571715614618 -0.04533603823873855 -2.0672268734982584
H -2.346413952872012 1.4680469745294649 -2.9487205154821945
H -2.906786711755298 -2.248828784474912 -0.6730803736562782
H -2.2981594573139468 -2.742211651221456 2.586207766704477
H -1.9323627652892792 -1.006549688664854 2.6007706028264423
H -0.5884407312469092 -2.2821753792714463 2.6073454056854715