26
ala_c10
N 0.32010450211776414 -0.8022874758035958 -0.07957589446076098
C -0.14657885943097626 0.42545872746582314 0.45307926098320944
C 0.4730371459748594 1.681150311475375 -0.09005745002556928
C -1.6231262467361538 0.5625041079123879 0.5377942519052128
O -2.0053808815379988 1.8142630996838418 1.077563266643799
N -2.370678981453993 0.31603260307924863 -0.643897997840856
C 1.6802517396410175 -1.1631335252982276 0.20814401652100767
O 1.8663186172696 -1.1891952830565216 1.6073948036617653
C 2.746505771157194 -0.2939048801825267 -0.34123860487102275
C -2.3391742507317344 -1.0279121106272 -1.142138482173384
H 0.19805885976098334 -0.8500797564969625 -1.142034262120524
H 0.201976076925878 0.39343386561169935 1.5632561422959659
H -0.19692640680784054 2.5224983437489006 0.2502199239497815
H 0.5276392212289986 1.6496918741372428 -1.1952513075508102
H 1.4532649890574028 1.8237770030144256 0.3727772183446026
H -2.023821224419277 -0.16647686234067144 1.3272172939879263
H -2.969912071457179 1.9066328358473879 0.889530363887656
H -2.246541434267134 1.0266368523714666 -1.3955289291643038
H 1.843316898108305 -2.2264830086136205 -0.15354553605766832
H 2.464657579500475 -1.9394091223318162 1.8243828827636053
H 3.260430414385819 0.327798392117461 0.42729610795512835
H 3.574994982886094 -0.9890564716812424 -0.6949251285582357
H 2.470102884841559 0.3357982037926758 -1.1895835926204437
H -1.8807222096347858 -1.0749035685196728 -2.1528521267791434
H -1.8471416076421898 -1.6944856048134542 -0.41690259061559154
H -3.4306555087367347 -1.3683485504923734 -1.2175741191097007