26
ala_c5
N 0.7299379548727284 -0.34497285965730984 0.587297297632963
C 0.016640588483104655 -0.3223084953904829 -0.6334016852632764
C 0.2392709757126025 -1.426963080802305 -1.595406374449964
C -1.4733933228342322 -0.25351713031945045 -0.29015626262387556
O -2.257361100661422 -0.2817091627753665 -1.421571642804783
N -1.6348808885168 1.0079061860158982 0.43524319845002507
C 2.1392628146747055 -0.21314381139182045 0.5598115592041528
O 2.62242252347301 -0.33638971778062243 1.8573993248810212
C 2.6187476774566054 1.1168685375358218 0.034444042219069826
C -2.751513037705754 0.8467909828863782 1.3425481286873333
H 0.49654907004817855 -1.2179403185497792 1.1115470633222597
H 0.1809100860926259 0.6350278299533009 -1.199764885393037
H -0.667540061994241 -2.0695729669512124 -1.76301195982639
H 0.47938199388365316 -1.0477253354753966 -2.633825286822159
H 1.0854392745397612 -2.1122548028103614 -1.3563684189508398
H -1.7046214347916193 -1.0653392856510913 0.3860977073117539
H -2.2465868972467677 0.5338582202949635 -1.9434795483249656
H -1.8544896243991538 1.7878086786216094 -0.253004264937541
H 2.6625365608173044 -1.0142372991038158 -0.03678787480828892
H 2.1523239177782925 -1.0795487386752547 2.328462720913777
H 3.691195594187216 1.0202197136955071 -0.21739245197270649
H 2.540768537590873 1.8999846678559946 0.8421140053309882
H 2.0739278184528542 1.5119306276221136 -0.8174689501843323
H -3.6006680599873495 0.4471928874618482 0.7423880026857531
H -2.493455133672367 0.1483367220037023 2.1469956741858174
H -3.0448058262538757 1.8296979513871032 1.78729088153723