26

 N   -1.157853449982   -0.225416811489   -0.442792892609
 C    0.155475965432   -0.649543809706    0.026465389065
 C    0.440843035944   -2.067065545086   -0.468643561007
 C    1.238149223270    0.356864113329   -0.401370228212
 O    1.294364023392    0.472659774363   -1.795947744755
 N    2.559828071573    0.004691705420    0.067189912337
 C   -1.876413110875    0.705012784170    0.392249043118
 O   -2.332623225688    0.041530301559    1.537773872243
 C   -3.028677700702    1.320296345611   -0.387882424748
 C    2.746819293543   -0.004883592813    1.507318476371
 H   -1.096983062469    0.096521820776   -1.388187194461
 H    0.107566756176   -0.667105771317    1.107849525097
 H    1.421019416369   -2.410386521217   -0.159897681490
 H    0.386159965754   -2.119342145315   -1.552468308130
 H   -0.309317374307   -2.744239418267   -0.078002913938
 H    0.936753277586    1.344812428459   -0.056590969657
 H    1.726924162237   -0.300603817652   -2.136890196375
 H    3.201195673296    0.653236808847   -0.346971629666
 H   -1.247124366790    1.501212346014    0.782663505916
 H   -2.751306962689   -0.761511219371    1.252482070483
 H   -2.666891476615    1.920556802695   -1.217553483908
 H   -3.671653469416    0.540210146237   -0.784709702568
 H   -3.615757642704    1.954401476169    0.265384345055
 H    2.373314830722    0.893037069552    2.002877820891
 H    3.804929953941   -0.092765693289    1.720435298516
 H    2.255041187724   -0.861550428514    1.950356432834
