26
ala_c11
N 0.40470207053475366 0.46036088782157614 -0.8598103042725298
C -0.2233758079747509 -0.7286007328405739 -0.5342423172613476
C 0.5885760693643182 -1.976300003622151 -0.39912294877637833
C -1.257707258414993 -0.7020247344973694 0.582005196859547
O -0.7570213723612281 -0.2622650615989665 1.7890717725108487
N -2.4499683720952765 -0.03055516707918003 0.16787628291050677
C 1.3777158436576515 1.08675177798894 -0.10348863482123963
O 0.9705115126110133 1.5434979035669325 1.1296617385901433
C 2.6284380199431614 0.23572940769754183 -0.0033158699605925746
C -2.2954784856081885 1.3445231507116584 -0.16115439595075443
H 0.27333495780293426 0.8159397706601089 -1.8367491161436171
H -0.8956781792241623 -0.9627055950020126 -1.456842992869497
H -0.0474565119544416 -2.8714840006593163 -0.7029456349083184
H 1.4991431411120228 -2.0414797601339583 -0.9917780720863255
H 0.8122030401083372 -2.2186097279283343 0.6828079294182064
H -1.5765281374984847 -1.7810157927305112 0.7435017013400248
H -1.4940191992550977 0.17564482980083937 2.2868594205174473
H -2.8431712128191413 -0.5807711360570961 -0.6505650000346331
H 1.7277037495915515 2.0084110771848946 -0.6758888184652678
H 1.5922036302795366 1.2041802582486745 1.838760534436728
H 2.8700707259979934 -0.1150759813276439 -1.024991945835834
H 3.480140774442065 0.8563662088064562 0.3718652535895328
H 2.5253563196828632 -0.6044467442193331 0.6800482703560404
H -3.3307315255517693 1.8020543820195163 -0.16684918572751675
H -1.6422133692862397 1.8898003054488854 0.5170094510654423
H -1.9367504230843353 1.4520744777404406 -1.2217223144805862