26

 N   -0.844984044760    0.449337015727   -0.062453683493
 C    0.043237009243   -0.699320755541   -0.152814418513
 C   -0.371504686682   -1.772719581690   -1.166175689096
 C    1.482120679115   -0.237501371705   -0.451818877974
 O    2.378298691358   -1.282197973625   -0.139067436516
 N    1.782446878630    1.010177125066    0.175242775601
 C   -2.249614241022    0.209187511988    0.088389852759
 O   -2.400690282741   -0.513422797972    1.283963204685
 C   -2.992495024505    1.535178838186    0.152846073409
 C    3.157526407502    1.452758741997    0.088935698513
 H   -0.662107842445    1.119445358866   -0.780282244967
 H    0.055941860562   -1.157837088149    0.831357673051
 H   -0.509836676328   -1.339946527510   -2.154317688215
 H   -1.298506823156   -2.252675184522   -0.874299669279
 H    0.392407598507   -2.537522266286   -1.235426143569
 H    1.612792947626   -0.107894094989   -1.520399732684
 H    2.332635100170   -1.465154746281    0.790831876752
 H    1.411902276268    1.069399225488    1.101741489867
 H   -2.665696392228   -0.388554020245   -0.726485463558
 H   -3.273537620644   -0.878437924600    1.320363392662
 H   -2.879093715891    2.094572399510   -0.771456661228
 H   -4.054198414462    1.367313205382    0.309259242906
 H   -2.606733068937    2.127199634115    0.973534414774
 H    3.451349851619    1.508529482111   -0.953856258898
 H    3.234931662597    2.449022530726    0.508929243121
 H    3.869724034753    0.805772204701    0.596470957859
