26

 N    1.241932728013   -0.514416570456    0.395719870637
 C   -0.091403163402   -0.885608748272   -0.062528189389
 C   -0.530551118772   -2.167071074917    0.648731662978
 C   -1.083244073387    0.275437769016    0.129826358996
 O   -1.185267671443    0.629577295645    1.483806548611
 N   -2.393332907900   -0.066209657320   -0.370375464821
 C    2.168000309431   -0.031360638154   -0.570601606801
 O    1.671910514006    1.138605912485   -1.199445017013
 C    3.513360123286    0.246226714685    0.082994618891
 C   -3.285450561772    1.068771253047   -0.529572495371
 H    1.176629583260    0.102910383171    1.181812303381
 H   -0.028543211038   -1.085234848378   -1.128844417163
 H   -0.524862033776   -2.027337361911    1.725255168779
 H    0.169785680580   -2.963495324038    0.425391547274
 H   -1.524623172387   -2.478671869432    0.349152139739
 H   -0.669982172792    1.153034537405   -0.352732802882
 H   -1.741711708947   -0.010988681381    1.909197242403
 H   -2.315229575756   -0.563690738112   -1.235064300805
 H    2.284904148862   -0.803186209261   -1.327610624379
 H    2.270896010448    1.416410344234   -1.879530826089
 H    4.232885516389    0.600320717087   -0.650076650513
 H    3.905235365427   -0.652891573006    0.542716514237
 H    3.406778995830    1.013160158817    0.843550450739
 H   -2.907752020314    1.821717398225   -1.223044231516
 H   -3.436796573250    1.545512263605    0.429422994546
 H   -4.247216177613    0.721599911777   -0.889025122839
