26
ala_c9
N 0.8247532117322753 -0.04057403558897878 -0.9340495722875973
C -0.2305876315134235 -0.8903438283029281 -0.528801473337904
C 0.0687281839822422 -2.098698858784492 0.27125278244367684
C -1.1909450819403655 -0.047753068408105136 0.3519756382423267
O -2.2665871555534753 -0.8519706621533967 0.6523395477949858
N -1.4841113275437383 1.2008428354728282 -0.17270006291456805
C 1.6796185089040254 0.6090595187249 -0.03865938112793403
O 2.063568230045124 1.8508913496352646 -0.5478657222909755
C 2.9156820921875903 -0.11493409343464173 0.4308802218471615
C -2.8387016258916313 1.6743073752693984 -0.14832012001458275
H 1.3979483002715227 -0.6442698235542705 -1.6390602176773865
H -0.8298520151609352 -1.1696342945917153 -1.414056863548977
H 0.9433638262014875 -2.09447497634112 0.9069942308376373
H -0.8105866179471077 -2.293688190285125 0.9846966669372885
H 0.040520025463612594 -3.0438774815976557 -0.34583078631641273
H -0.6504354608414779 0.03251868995696186 1.3734098330048534
H -2.4762626935213765 -1.5120379444663683 -0.07326515637200856
H -0.8942666650448345 1.939612245274237 0.3239966509196779
H 1.1251717635657912 0.8088292915951405 0.9614057049579556
H 2.3209883534057845 1.7062458240982696 -1.4769042765400884
H 3.483452040592693 -0.3999805537320187 -0.531617800033858
H 2.8372396332905536 -0.9359505903247229 1.0915371837213468
H 3.608733005162762 0.703530024207355 0.8330933970466949
H -3.6157942110809804 0.9208594526283858 -0.2672296823701183
H -2.9855860527582103 2.4956657300718414 -0.9043260486588532
H -3.0360506360078183 2.19582606463089 0.8411053057376602