26

 N    0.861868912757    0.244740062546    0.147139598910
 C   -0.200365686318   -0.386109019626   -0.613783714122
 C   -0.008666767494   -1.873570853947   -0.946023097118
 C   -1.555479963755   -0.201437717305    0.098095351069
 O   -2.598257521790   -0.473346579298   -0.813648444491
 N   -1.650375966534    1.065008541310    0.748081758972
 C    2.224099776554    0.130042027399   -0.286117828761
 O    2.874973850122   -1.049180409629    0.130707463833
 C    3.053546640715    1.273195529860    0.270654524631
 C   -2.935815998512    1.391959088874    1.327726925422
 H    0.774212920391    0.096065754533    1.132102598679
 H   -0.271677966294    0.151788797257   -1.559693207180
 H    0.165921548440   -2.451277205086   -0.042005208989
 H   -0.891292268767   -2.268074693245   -1.433508366252
 H    0.828651960012   -2.024687105526   -1.621457635990
 H   -1.675703376425   -0.969414281097    0.853637345779
 H   -2.601733773058    0.188640449863   -1.493329400403
 H   -1.269077469795    1.808372620294    0.199639403326
 H    2.221439312661    0.180116690437   -1.372377505406
 H    2.446408701719   -1.806797969796   -0.238593954665
 H    4.084413840599    1.181795694701   -0.050523400274
 H    3.033516263864    1.248954708690    1.355456770586
 H    2.654742352159    2.223591568643   -0.062184277399
 H   -3.742524223346    1.489788520641    0.604402786355
 H   -3.218600821256    0.616608077274    2.031421116746
 H   -2.848619281794    2.322208614274    1.876712597037
