26

 N    0.732012487765    0.341946594010   -0.858376697346
 C   -0.100480695738   -0.837551324461   -0.599472733050
 C    0.647382075098   -2.098201121006   -0.157940414580
 C   -1.230269080771   -0.472266689842    0.378650493806
 O   -2.071911964154   -1.567706867987    0.605832562102
 N   -2.003511919302    0.619351493852   -0.147073357883
 C    1.753969561047    0.712788313795    0.073278279880
 O    2.887811582544   -0.107546471787   -0.116434214125
 C    2.129749123672    2.176549619915   -0.116595862090
 C   -2.850489121764    1.285764823744    0.822211410978
 H    1.133169716922    0.293585587393   -1.774005836891
 H   -0.590080986697   -1.048472973885   -1.546155467282
 H    1.432188186583   -2.338350096098   -0.864865479551
 H    1.111702389839   -1.970628340831    0.813530614092
 H   -0.038436348101   -2.932736065168   -0.093601456045
 H   -0.806262705252   -0.249360725467    1.357592514873
 H   -2.651854820165   -1.633256506006   -0.143332811982
 H   -1.392018280133    1.267227818046   -0.599567264124
 H    1.368435779729    0.567488534997    1.077474893254
 H    3.570646552977    0.137658035961    0.493383972286
 H    1.273920848537    2.816391782701    0.062345275392
 H    2.482054272633    2.341215006781   -1.129775015809
 H    2.923312071966    2.466789331733    0.567146836629
 H   -2.295565135721    1.733158047701    1.649917386778
 H   -3.414635098408    2.068825228190    0.328768416425
 H   -3.554582253451    0.577805917255    1.239818384964
