26
ala_c14
N 1.2162365230325658 -0.5065144904214718 0.42614834094663756
C -0.08150897682319504 -0.9451941558355605 -0.08857546179318854
C -0.40445175677276435 -2.1819289597121654 0.7229546078148489
C -1.0721001543782198 0.135637931648654 0.19308112776857705
O -1.192443712408789 0.302270524371269 1.5993393892528478
N -2.345169628961849 0.05944727727019221 -0.4070499187857596
C 2.0413217227299905 0.026727771308011558 -0.6239637823318018
O 1.3797673103335049 0.9727874857996904 -1.3965009721040837
C 3.279734999802091 0.6237884863004806 -0.0340881712303918
C -3.0232691129903695 1.315312511032094 -0.3558415928269444
H 1.1048759131612715 0.12018605901361877 1.2519203756518003
H 0.08126466507157108 -1.171080572605942 -1.1517776587094986
H -0.6763499044703786 -1.8575846556115456 1.7465354569505764
H 0.4927379390502104 -2.8255802268202928 0.8327431725506159
H -1.183900829513004 -2.7804933575272908 0.23717926332562217
H -0.6176066993858228 1.1347306068978724 -0.13965486084860218
H -1.9963795165463214 -0.23942061603939785 1.8536011815737734
H -2.5329001805170797 -0.5760296322547555 -1.1587204618221913
H 2.3490645562326624 -0.8388197837068262 -1.2644313702793666
H 1.909709552462063 1.7447543422299077 -1.6423555217580343
H 4.107968927720755 0.728601307210214 -0.7693378500038127
H 3.686562533275514 0.029177927385911337 0.8035994955009181
H 3.1066247876928164 1.6449399874404718 0.37724912976061437
H -2.540242956234281 2.0724822008665793 -1.0149409744262297
H -2.9837031327141266 1.7601132205954484 0.6815339787890161
H -4.10584286884878 1.2516888111648634 -0.5889981610959858