37
his_c26
N -1.656489045952945 0.13990153927362586 0.722079666948839
C -0.45017723647710356 -0.26313170739912434 0.05394509297880939
C -0.603538477809443 -1.6821006567820866 -0.42670929974143856
N -1.7924594255370607 -1.8237810867937667 -1.2727482687967147
O -0.8234010076649239 -2.5573468951633824 0.6489816231069777
C 0.7677245960974557 -0.07198954041767515 0.9200437202036291
C 2.050492232922335 -0.47649707238890604 0.29360364261345767
N 3.1430476392201134 -0.09849216710792358 1.2101673412328084
C 4.251909085822833 0.21368580983060834 0.3024833467611254
N 3.6586681956752027 0.9315374431192419 -0.7772954993848478
C 2.3760363867818564 0.28424899694934586 -0.9712725665331149
C -1.893343288394293 1.570522789934464 0.6441898755103084
O -3.1434698139636965 1.7864659520228707 1.270808899819109
C -2.0735780832093793 2.045384034127271 -0.7763058434701072
C -3.0245757300116183 -1.61421482309063 -0.5764730563964621
H -1.679093112884161 -0.17941522253566342 1.7250892449306074
H -0.3335819467085842 0.4085965317538119 -0.825489507574073
H 0.2572678295333282 -1.9655946369041428 -1.0401699879824802
H -1.7536291852190886 -2.6372359610540386 -1.8974285449483967
H -0.17191514637382052 -3.3080991955021077 0.49276205933874223
H 0.5938603942256809 -0.4975485568863578 1.915680132654052
H 0.8416604361378732 1.053540428393466 1.071314759661235
H 2.101389755037504 -1.551406045838586 0.022127511951057537
H 2.9054816115149014 0.8023298703225723 1.6823475214569494
H 5.005878155123842 0.8750283419490313 0.7743015493441335
H 4.785527672288167 -0.7080389692956813 -0.01565553388874263
H 3.5535221874979377 1.9541713652526038 -0.5344326088071728
H 2.4755025803524977 -0.37258974942370077 -1.8638926259792874
H 1.5657356065650911 1.0298157139175848 -1.1734683871749014
H -1.1606310318513895 2.176859873854364 1.182574835321083
H -3.091144851536365 2.6416442959564193 1.8034179517171105
H -1.3157706341291737 2.8523103381416304 -1.0112002663456559
H -3.0668965420795393 2.5592978929367667 -0.9382676561826849
H -2.059672434086714 1.232331685066196 -1.5272756737539022
H -3.8232052225953193 -2.3383006020548986 -0.9573671701408816
H -2.9482085532052102 -1.80178586178736 0.539147313298706
H -3.468923595106731 -0.6101041523758058 -0.6896135917476091