37
his_c19
N -0.8085000529018015 -1.3930852408066454 -0.5423701779938883
C -0.4381638420759473 -0.12649051357162436 -0.0794958073208726
C -1.473363449820534 0.9486896832520503 -0.10151856343702692
N -0.8918002424344024 2.2229296984861464 0.3166938913943444
O -1.9340515700463783 1.1886078120268653 -1.4183423076784705
C 0.7634043267794917 0.3325167231738169 -0.8952828667670393
C 1.9339220497189749 -0.6259001085092104 -0.7432261873760404
N 3.035425500425375 -0.00011982457981503771 -1.4958757244355667
C 3.7621523553264895 0.6539742102653455 -0.4241543061737594
N 3.8308497356149878 -0.43127938738782334 0.5566256985561662
C 2.421606307983227 -0.7683280377527587 0.6614370186200323
C -1.767119235244969 -2.185875445204366 0.09834547361003519
O -1.8253048843436772 -3.418177966772851 -0.6206117865213557
C -3.1527744794991506 -1.6596452898609146 0.13112179794656548
C -1.9822244615630495 3.1211317360511406 0.6484840471333531
H -0.6394846539710376 -1.5900773992722625 -1.5429905852233354
H -0.09028300377178534 -0.21894637872261927 1.0055950696912672
H -2.34800058811251 0.7893469635477389 0.5337427356242946
H -0.4294183031504566 2.655481479703795 -0.5209191851984083
H -1.4401227590197128 1.908986943637619 -1.8481288353401808
H 0.4705537886315571 0.30365369207526177 -1.9605225067665626
H 1.0898363075394395 1.356079803127235 -0.6282818562854622
H 1.6765988089279475 -1.5756165133289808 -1.235282992359106
H 3.631459591579775 -0.8053211732631164 -1.8084826627096826
H 3.2207714601008957 1.53575745604914 -0.027451274055658642
H 4.799777874077466 0.9089114259042523 -0.7049174108209731
H 4.240263128664821 -0.13094698250223613 1.4553099761336812
H 2.360600922574165 -1.8503438766387603 0.9419683645702237
H 1.902395744927688 -0.14379959845385684 1.4106308367911136
H -1.46424860097539 -2.475272911297586 1.1467152209807494
H -0.9841549986875314 -3.923548220625702 -0.48925185793293163
H -3.3626286243034564 -0.9645008648733019 -0.6902492915661879
H -3.8642158374325235 -2.548847268422474 0.0644619531039022
H -3.377229536396892 -1.2279332355048482 1.1452344864568473
H -2.516043788243169 3.4718536639310305 -0.28100356289760303
H -2.749994533079621 2.6224285350085403 1.2570776140525088
H -1.6004904577983647 4.043706411111961 1.1307574162544494