37
his_c32
N -0.6097983865638121 -1.1846527453983264 -0.0469657102868301
C -0.294810160977455 0.0823246809809212 0.5697406219324328
C -1.0646030519988479 1.221464148614108 -0.0745559053516036
N -2.3859444817500504 1.431772360560761 0.42091102088128457
O -0.9292634524483714 1.2795680361976483 -1.448443926945414
C 1.1473370439387156 0.4375345408286478 0.6644696455169041
C 1.8469376723683955 0.5132579157989524 -0.647832549277188
N 2.0968388956582285 -0.8408162012447941 -1.1642364251560227
C 3.1184850373446955 -1.3512635633144063 -0.2991198777447054
N 3.838171662793346 -0.2335629887398062 0.24975644093220442
C 3.3020335736433437 0.946334342029761 -0.41481688312555826
C -1.9743041277549997 -1.600831050422391 0.13066364120035576
O -2.6457434848097146 -1.4862866038144116 -1.0802724487626703
C -2.0738779413814377 -3.0207067151972677 0.6677593581778531
C -2.5092174893236576 2.8559919640348426 0.7438482938944267
H -0.33604698849262415 -1.1735017765262326 -1.0714593775035912
H -0.6886941363068031 0.009680170283525821 1.6367041065145493
H -0.43578026684094384 2.144214244617527 0.2631708564096303
H -3.121568313595517 1.1278731166089317 -0.2385495723156619
H -1.1965118838791142 2.1965571953392162 -1.7452131221370069
H 1.186317123161986 1.44142747808633 1.187342447322653
H 1.6647511930270011 -0.24126464163397993 1.3785095004604213
H 1.3690377893492736 1.134215537637097 -1.3829204373558086
H 2.4554317288309306 -0.7443064939918337 -2.1386424457069677
H 2.676570566614979 -2.028807408984806 0.462446725551291
H 3.856312392260723 -1.9216890583986161 -0.9387939160314658
H 3.663250493575217 -0.18051830201164848 1.2924187315527875
H 3.34908931929933 1.797310812871185 0.2816360685930132
H 3.7918817329968286 1.11782015401178 -1.3683194699536338
H -2.484641095142208 -0.9650442473993173 0.908249666741257
H -2.7125342828553682 -2.372482993433662 -1.4802511049196572
H -1.6909597562419052 -3.08071516902041 1.6872128799356203
H -3.143328847952687 -3.3058271665307553 0.6464517669116642
H -1.5518348307114616 -3.7114017109835604 -0.02969190765506261
H -1.6190369938923526 3.4269311429171103 0.2863276314057885
H -2.468724712473048 3.0079092996885373 1.8225489316580108
H -3.4252215394704377 3.2714916959393787 0.2699167446366645