37
his_c28
N 0.8887486988606244 -0.8278288446478189 0.2124913008133306
C 0.2861435930250526 0.06176136410616876 -0.6418198490488304
C 1.1642662647527706 0.9886082750163111 -1.4026365793786217
N 2.0853863701200197 1.7772605914186095 -0.6309828414659698
O 1.9719422711866599 0.2345761598606431 -2.281848830517367
C -0.8099977790933008 0.8342253995162293 0.08171078251805114
C -1.8938064658760798 -0.08212041360003632 0.5991267796696425
N -3.0053383669632563 0.7151321015857923 1.1284747696795472
C -4.042350270124195 -0.2910299232589804 1.2321709157375398
N -3.881831077407601 -1.1431090298696047 0.09343696307800527
C -2.574138719807924 -0.862542217079857 -0.4702145028976141
C 1.7396426916566485 -1.8669231725238116 0.03457641788775408
O 1.8601124154526896 -2.5577259904433984 1.2917275375258432
C 3.1280821235156293 -1.5860306713697518 -0.43691161051520766
C 1.5597570793506137 2.726703286493459 0.2754266177360487
H 0.8266589467423301 -0.5369426185986351 1.228207566476451
H -0.2817191679306975 -0.5771812279694664 -1.4579576628695194
H 0.5383310846125137 1.665635889798804 -2.071729347671805
H 2.8299603105547075 2.1568016937425587 -1.2553181086984448
H 2.795098597969788 0.749008751565078 -2.467677743513898
H -0.41898326914081513 1.3503062509131327 0.9732844989913442
H -1.2790146490410617 1.5806698946941662 -0.5746527877934002
H -1.554955059875243 -0.758833787570456 1.405338208799816
H -2.784970528424457 1.196587547207639 2.0008065393588685
H -5.054367475278259 0.18801726763184767 1.268656830220012
H -3.8870206058081136 -0.8786544992554285 2.18363219541058
H -4.008159093544814 -2.1290703240911357 0.38662203188610583
H -2.090592216169456 -1.8520560062270155 -0.6504127878185093
H -2.698579705847575 -0.279312455258088 -1.4010672848734038
H 1.242383464497949 -2.6312678079105076 -0.6613431121880189
H 2.326111864780306 -1.921150620036298 1.9017259910460806
H 3.8574521304825296 -2.2182792862518914 0.18830520535198825
H 3.41938352981588 -0.5611899954876117 -0.22240995866138688
H 3.224571141619872 -1.8931557209017134 -1.4872408808704471
H 2.2959421569032554 3.6079176591716795 0.26510200338820183
H 0.6083408569180451 3.204407817362132 0.00310236919948536
H 1.6175088575149414 2.41678466226735 1.360298364007604