37
his_c11
N -1.039578044411271 -1.3846200499825192 -0.16035714892103117
C -0.7267418062551312 -0.12292741238613819 0.46843904653013313
C -1.009016603010692 1.087467688001066 -0.32493725800355355
N -0.9303733243946964 2.334129266190704 0.45983254992342565
O -0.3552952441350641 1.2579669005575527 -1.506246712502111
C 0.6121425349006274 -0.24789589558102537 1.1124212245632537
C 1.7266913591939617 -0.6510628447207318 0.20370748543858688
N 2.028094012474281 0.34523778154133794 -0.7548226887187317
C 3.3560608677207173 0.8566540283390739 -0.47891336866605166
N 4.045322549103439 -0.2710690368300825 0.12554101719978877
C 3.0040141431348744 -0.7185547482769712 1.058003570731351
C -2.448703163416559 -1.5393839680820645 -0.4375908737083004
O -3.1713531462807265 -0.7708135777825844 0.49979936224487037
C -2.8105996900611023 -3.004051016006989 -0.2046145442605894
C -0.7005790392982167 3.48507202918446 -0.379335213081841
H -0.7861401625705978 -2.118995939045788 0.5642500368864387
H -1.4516910472926148 -0.03700201192777015 1.3797412068231394
H -2.1281304539858032 1.0636253739243575 -0.6181027277128135
H -1.832132756589249 2.4798956352089334 1.0054152330673902
H -0.9117793824495799 1.2869428105267768 -2.3205793107805883
H 0.5718667648754414 -1.0448724133265859 1.910546234686919
H 0.9133474548772668 0.7160578772957142 1.6220032664180286
H 1.5430821691221523 -1.659175885076916 -0.24750516809575354
H 1.9666129908039633 -0.0015061063120868994 -1.7499183847210054
H 3.8702239845535713 1.2165573760395125 -1.3931079150280865
H 3.2600537168360133 1.6395662795320276 0.2937017986261723
H 4.211207044123141 -1.0351190896875844 -0.5654709588330948
H 3.1916965607805965 -1.7065973888416812 1.466729610128203
H 2.9834933094310343 0.057278119285703796 1.8592470015574656
H -2.724677298820902 -1.2630019318875707 -1.4699579868430996
H -3.639731185620427 -1.384545683492116 1.14585727666542
H -1.9035544426670625 -3.616107115206043 -0.05330424732219569
H -3.3542833559662486 -3.411158814549137 -1.0866650465360888
H -3.489463221967913 -3.131605285001887 0.6725690367567408
H 0.2562489413465815 3.9359133509827813 -0.035631876009194395
H -0.5862610256002417 3.18309545181879 -1.4439259231393713
H -1.5400740084834814 4.174606245575466 -0.302350153535793