37
his_c15
N -1.1416361566363384 -1.2775688010124446 -0.3272354152471937
C -0.5957946449003134 -0.3471699378383999 0.6196534065748035
C -0.8074999596620206 1.0456816347557822 0.1586506799255199
N -0.5390761997512762 2.0696133867662225 1.1553940325526122
O -0.22039847942706733 1.3763264417092418 -1.0434954773595846
C 0.7614847940190872 -0.7052750555592943 1.0921622101517725
C 1.8322937424060715 -0.7976443142938348 0.06515998048874365
N 2.1838769948340686 0.5528780120349844 -0.377505336654414
C 3.5188145241889606 0.48581068398692856 -0.8690656656584013
N 4.175569393117953 -0.4664348626801832 -0.04010483082162081
C 3.162582244200275 -1.1976062980088824 0.7132187972066565
C -2.5613696607728764 -1.2812852046721568 -0.44601408295427825
O -2.9290701793090435 -2.232553364437475 -1.4106615514639516
C -3.212118878220148 -1.7266831224595787 0.8749966202204847
C -1.7018696970445666 2.960057651458444 1.2667456095837875
H -0.6623350375858801 -2.1718510423674022 -0.40989769867820025
H -1.2710978779322073 -0.4614584753040484 1.5375936528191079
H -1.9307961304857748 1.1675410807000146 -0.048176838850363786
H 0.2852596169601612 2.646476185972135 0.9093502888451085
H 0.09792033383858251 2.3326860260334654 -1.0208371167018004
H 0.6939053041431341 -1.731186639931936 1.562048896459926
H 1.062120709408503 -0.025655093973020845 1.9309762775345545
H 1.6465103903191185 -1.5006715370554375 -0.7314298769761364
H 2.058149297856559 1.2011170626524221 0.40173212274568654
H 3.9622866853706604 1.5047828475657044 -0.810101137964613
H 3.4951777692618555 0.18331019899109216 -1.9374949816291003
H 4.938782906588374 -0.09316382267766045 0.5538465642658692
H 3.1651908056286846 -0.8960335318010973 1.7913912399060485
H 3.383430215593202 -2.2622822427652487 0.6332332301981923
H -2.9453017402282105 -0.2902000476809816 -0.6956156178116033
H -3.8531687121263776 -2.0135277089181045 -1.7444649380127764
H -2.48923389100601 -2.478341536600877 1.3177623389062505
H -3.3918977802312584 -0.8674488267828065 1.5478415316031728
H -4.172491502110148 -2.2200323142245955 0.6592265597489483
H -1.919379620618289 3.296649701186636 0.20200446918634146
H -2.5521164070039384 2.365264344849072 1.6076940766431633
H -1.5267031726832823 3.855878522383347 1.8664015538372092