37

 N   -1.115196949750   -0.627188024412   -1.050687203019
 C   -0.762880258424    0.423576318882   -0.097217927588
 C   -1.838845635907    1.519900824805   -0.118939988527
 N   -1.560369571179    2.593976047092    0.794586369165
 O   -3.076019737817    0.883778042759    0.114145641220
 C    0.606141708651    1.031837813863   -0.437182388668
 C    1.767395311726    0.047845266922   -0.410399826058
 N    2.010798134054   -0.527207100992    0.912233568195
 C    3.396691649072   -0.953103454979    0.829330428281
 N    4.125648821859    0.042562432718    0.049295823435
 C    3.130448020483    0.665040402291   -0.830806246781
 C   -1.020307128558   -1.997694821401   -0.580862813163
 O   -0.969986366113   -2.844616160579   -1.694544331228
 C   -2.193087520226   -2.469665791843    0.264995893541
 C   -1.694187807623    2.318883286178    2.215506941655
 H   -2.041386433498   -0.481600656636   -1.399254772393
 H   -0.729761073271    0.015895457473    0.908137684255
 H   -1.848869718681    1.960249979705   -1.113277947324
 H   -2.093370869760    3.403227835296    0.547577528268
 H   -3.782366393949    1.502756801489   -0.011380697866
 H    0.817803805821    1.850049997425    0.244264305765
 H    0.546896746943    1.460186055537   -1.434964988119
 H    1.548076368636   -0.775260809309   -1.080420592255
 H    1.939216870949    0.202059099840    1.599924204456
 H    3.835466791569   -1.086880376453    1.809591535078
 H    3.429492104057   -1.905344002712    0.312724268935
 H    4.516295940484    0.730264568228    0.660465039122
 H    3.132552099613    1.744108894443   -0.705446798337
 H    3.349330157345    0.459083325898   -1.872648317974
 H   -0.105760615640   -2.078528022826   -0.005147091550
 H   -0.365679546442   -2.461472897824   -2.316551060751
 H   -3.112708922797   -2.404110679485   -0.306917218294
 H   -2.046213837105   -3.502888490122    0.559676104082
 H   -2.299371686764   -1.863632252863    1.157194135605
 H   -0.934116415277    1.617484440553    2.535860820134
 H   -2.663188956349    1.914422167894    2.496006902310
 H   -1.532752882113    3.241652531866    2.759845079634
