37
his_c29
N -0.3838362190343769 -0.9878035590229994 -0.5578027421978177
C -0.38029972897333936 0.3896464333298519 -0.24338275887410415
C -1.3915867214955755 1.2828211134019762 -0.8803592190111329
N -2.700218468863946 1.3425337255653715 -0.33071383665022985
O -1.3877446345659452 1.2526022776373886 -2.278060413369092
C 0.9634620782682081 1.0758899181647934 -0.29300084679704114
C 1.926152930151012 0.4252424048202589 0.680449703438683
N 3.192817102751176 1.069371432330039 0.5673145108513235
C 4.184616416587579 0.05821680825473807 0.8758618457198848
N 3.5789247217848246 -1.2048276330625356 0.6576030155434168
C 2.1864442410216878 -1.014179088418661 0.352679015497138
C -1.4540425303085907 -1.7990636007146945 -0.06838664513630568
O -2.5433841484582977 -1.136350184912956 0.4460087174231869
C -2.0260599941333677 -2.758926645529004 -1.1079226580268964
C -2.7447237605373376 1.9322229111341045 0.9843393536841736
H -0.19895247597367835 -1.1644445943660446 -1.5980710957818498
H -0.6801523791492108 0.4204283671231451 0.886762436925044
H -1.015838608353534 2.398228101798977 -0.6868479824822323
H -3.290356332968197 1.9198338579448797 -0.9605152987263827
H -1.2838732140728188 2.1444007397934115 -2.671680213251739
H 0.7922735149850869 2.125553817329467 0.052152462764908716
H 1.3789099506697526 1.0646944277338148 -1.2893574241782808
H 1.5764369644550162 0.5439881877323097 1.7344942030586739
H 3.3961346163652646 1.4169594821753628 -0.41152653592037863
H 5.092657171976591 0.19666423486331225 0.2550450884071157
H 4.5038599712793665 0.24480027015377973 1.9165516170632022
H 3.676332203733844 -1.7881357125247705 1.5034600176311128
H 2.051373392507456 -1.1637456769249381 -0.7710402882415234
H 1.5558704995572505 -1.6924075914447259 0.9312890884919569
H -1.0698522800452983 -2.4246960261195416 0.7932674899128981
H -2.5540437929314854 -1.1917076006400815 1.416007070193737
H -2.237127133241953 -3.7217660516525353 -0.543009867356838
H -1.3605395615321159 -3.0197062262151393 -1.9206998178374826
H -3.0552986068768195 -2.4578261384909723 -1.4559087800092878
H -2.1449416316039716 2.8659212846237714 1.042215263476335
H -3.816420634297025 2.1380638212038745 1.2403381529884445
H -2.3369729186773998 1.2175027129248601 1.7324473707773667