37
his_c24
N -1.39650460919278 -1.3295212872011526 0.604565524225386
C -0.445473919143885 -0.3294539640852863 0.4342881861990295
C -0.8989023311085007 0.9653799496697854 -0.18239728733344976
N -1.9719764601695073 1.5982272850098331 0.5823475462101455
O -1.3321350352074453 0.800607991025776 -1.516726487380417
C 0.8098278524916928 -0.7647115638018853 -0.28857313541820295
C 1.8311915703707866 0.3166890261537639 -0.47826018919191815
N 3.001512863070847 -0.1897796097377111 -1.1954875547963797
C 4.12809589816253 0.20713537129711204 -0.4130494892119676
N 3.6432130258656703 0.33227881021890404 0.952708071242109
C 2.3388547154490857 0.9448726810364498 0.7721838533418248
C -2.1415644611489095 -2.026239097197489 -0.2827290278948254
O -1.41838447868169 -2.9318467692297583 -1.119483698868038
C -3.1716011343788866 -1.3698801968713954 -1.1476619425568042
C -1.5753155640956964 2.010721253507126 1.8889532077415558
H -1.638939290481049 -1.4891169930385555 1.6364408034877604
H -0.0778956149102433 -0.06776832012373096 1.4501279536524945
H -0.1059843721300546 1.736052860713613 -0.22330588594197295
H -2.3855953588089718 2.3889017644623762 0.08200915487423782
H -2.0330575234433415 1.4604782837142927 -1.7387921109323372
H 0.5490444614026672 -1.1351358005199734 -1.3124161505424536
H 1.321916093390362 -1.608253272822363 0.20293459097227548
H 1.4146768654691302 1.097775371069189 -1.164651251028137
H 3.023232661061064 0.0699765605258562 -2.1859896164390173
H 4.536943955579235 1.200454255891209 -0.7247187097645413
H 4.933656214525358 -0.5372373147414865 -0.5131759831348879
H 3.554864174536683 -0.6209549102110762 1.3921935209642262
H 2.5487697501799453 2.030029239700244 0.566586911873098
H 1.7016259104312654 0.8548030986325038 1.658084068884679
H -2.733034407090013 -2.7928534095897275 0.3287224486667918
H -0.9871215649699167 -3.628540004541269 -0.5658958307757247
H -2.8466328662374933 -1.30258620244059 -2.2294316779695498
H -3.5934992282435907 -0.4336985414386483 -0.7581073004548329
H -4.101672423253167 -2.029720204823611 -1.2523792745811566
H -0.7612179346101305 1.4582530362188695 2.3645294916462554
H -2.454158990127549 2.011644539856392 2.5821317035636024
H -1.266758444553716 3.103016083712615 1.7944255666711164