37
his_c1
N -1.3250470489392998 -0.44061196042989703 0.964716233865147
C -0.2491053085169198 0.2611189083322522 0.35289006732533457
C -0.6352237661403636 1.4337598142457841 -0.4948390198814641
N -1.0698545280118983 2.5869740949443893 0.17861181886172986
O -1.4819268997739747 1.1219799509542976 -1.5509157894474845
C 0.7142545102383826 -0.6406619048663508 -0.3011776978968521
C 1.8833426332392453 -0.032867898230239896 -0.9745740266853823
N 2.8047805437870523 -1.1291795333969614 -1.35116107802779
C 3.720487583882344 -1.2488753953478942 -0.25106289077489974
N 3.4312539678908407 -0.18419124196895442 0.686601439600892
C 2.797026714097176 0.7871851130645094 -0.1419159714707291
C -2.3125991298609487 -1.0655171043314593 0.20485023946817363
O -2.000098836121578 -1.593785551023861 -1.0175210303396665
C -2.8231414424989785 -2.2716991677606595 1.0294964879193418
C -2.2264335586765367 2.5618106710617283 0.9751557104792886
H -0.8936671146514906 -1.1190365152782884 1.6439011993019357
H 0.2454997253094301 0.7718680918841386 1.2746730421570662
H 0.33708500461897384 1.7321129870769936 -1.0166832804088597
H -0.9934509820874616 3.4655454947715767 -0.3539337497963532
H -1.4678752669885111 1.8414188645591945 -2.2165704472337118
H 1.1143680231066468 -1.3825821147583883 0.45558002916457097
H 0.20359979223552524 -1.265326383245497 -1.0513112860987663
H 1.6574963302168786 0.491177276331584 -1.9085610565189508
H 2.2787775323659436 -2.027505937506382 -1.446026419310172
H 4.761096797714785 -1.1479659049329416 -0.6531647756201283
H 3.683749947136144 -2.2427277224142332 0.24606572752813868
H 4.370486898490381 0.17177634098343178 1.0451575090023935
H 2.342987147466891 1.634031160556216 0.37538287569182655
H 3.5725266078756635 1.2060471829345234 -0.8233635925936337
H -3.2539802151432755 -0.42500613490701833 0.1379571658532763
H -2.682625714922989 -2.2529151842543516 -1.2603594060329437
H -3.0651356399430614 -1.8548707280914387 2.023720398320075
H -1.9839067973730544 -2.986032564693358 1.035013884295309
H -3.708980339689671 -2.6803169726049596 0.5058776165108725
H -3.0257144537018137 1.8518379079473046 0.6972131803997673
H -2.7290267985012857 3.5747601303804286 0.8974584335256874
H -1.991025918129353 2.4982719300152114 2.082818458866853