27

 C    0.066584423303    0.445381394414   -0.008385575134
 N   -0.902348380744   -0.392438713703    0.694475774094
 C   -1.810492704095   -1.192118214000   -0.109100243669
 C   -0.381535217068    1.914236109206    0.042936695528
 O    0.202525175370    2.706949278332   -0.946616120195
 C    1.449007186146    0.268252424949    0.644181272675
 O    2.297557142068    1.223244258170    0.066394010250
 N    2.077828650636   -1.023838776674    0.551833541509
 C    2.171718290888   -1.655337796876   -0.751780311217
 O   -2.483402756839   -2.057578103918    0.755735426258
 C   -2.786636872039   -0.345948244817   -0.910741977344
 H    0.145438133688    0.166905202642   -1.056931779693
 H   -0.445551050442   -1.028931248000    1.315921981130
 H   -1.273580749278   -1.848440191667   -0.790358691755
 H   -0.190882037703    2.312517540950    1.039047023898
 H   -1.447832676857    1.961209945522   -0.115640027346
 H    1.143938612873    2.664922751678   -0.840167594553
 H    1.335469379286    0.474415769358    1.706943884899
 H    3.175040547349    1.066211612608    0.391518532017
 H    1.751986165317   -1.655474908126    1.252686579932
 H    2.853686827869   -2.494582161951   -0.685015681395
 H    2.581778854167   -0.949114105755   -1.461438235972
 H    1.224188305575   -2.019821646418   -1.143030362361
 H   -2.963492292250   -1.532603631331    1.384696479359
 H   -3.470608591153   -1.000207366760   -1.438985014755
 H   -2.281607299580    0.278506577018   -1.638602019898
 H   -3.359281983242    0.296695897855   -0.248753581422
