27
ser_c11
C 0.013778789627833592 0.4589915384881825 0.3334493646877353
N 0.8378430065353403 -0.1582970019169899 -0.6736843016866246
C 2.224771221284109 -0.22550918483787447 -0.4384433754365938
C 0.38373021116543415 1.9557483145980141 0.40170538674753986
O -0.46634291251517523 2.559454911677206 1.3085492552095064
C -1.4323396974366358 0.3320485930569934 -0.14514321832330065
O -1.5083601994377664 0.9834592440830694 -1.3539171249116742
N -1.7986149813484065 -1.0506872652437975 -0.2192402052750645
C -3.065544576502999 -1.3625620013207234 0.33659995246260793
O 2.9210905643036926 -0.460453251915466 -1.6368103835610914
C 2.631581921442627 -1.2206046761363318 0.6090420680794332
H 0.15281500373442922 0.04234926323003222 1.3335330191894879
H 0.4346263604370533 -1.118284190502358 -0.8799159556059251
H 2.6143338511665926 0.7886550041979139 -0.06320794239176468
H 1.411116847016382 2.10618509560978 0.803182029318981
H 0.281763586299726 2.4183344718424458 -0.6015626920972109
H -0.6179866919369457 3.529606969055314 1.098853995104183
H -2.0482311140103238 0.853181405965289 0.6155623043969173
H -2.366775515934978 1.341583213114695 -1.6119895901167702
H -1.5944140769719215 -1.4796445019746207 -1.1456791488465852
H -2.9807283696569074 -2.071227266186719 1.1844097099852609
H -3.727942956146281 -1.8483912683414168 -0.4207931515279982
H -3.5546726035903027 -0.4437504567633355 0.7000169504167197
H 2.9994590144499536 -1.4223842353165472 -1.7998596898693038
H 2.029693455274177 -1.1342827195935887 1.5133361811328663
H 2.5057010675876934 -2.27085229340334 0.1915066586321552
H 3.7196487951636175 -1.102667711465823 0.8003947928737117