27

 C    0.003004369170    0.377785463397    0.162533469257
 N    0.648381451462    0.190463484694   -1.134743666178
 C    2.063475103484   -0.102636306405   -1.185753522064
 C    0.018530680836    1.847040507124    0.616560446308
 O   -0.289831137104    2.014654963895    1.967772515534
 C   -1.429443328241   -0.173327016535    0.080983955094
 O   -2.117790746931    0.012479367299    1.294766047016
 N   -1.416546508039   -1.570730861615   -0.242048217891
 C   -2.698625913013   -2.103096893467   -0.668693314301
 O    2.881732986746    0.845300392598   -0.544759713438
 C    2.380942857343   -1.510503524082   -0.698388728880
 H    0.528907683204   -0.205753954455    0.910310953386
 H    0.455304103215    0.975245676469   -1.726572535025
 H    2.337896666362   -0.031511084071   -2.228730826059
 H   -0.659406014291    2.424036405141   -0.015167817599
 H    1.009353388276    2.249831754880    0.470386250255
 H   -1.157336346046    1.660336811412    2.116609431455
 H   -1.988064957531    0.418979276315   -0.644212116553
 H   -1.853895220451   -0.692210212484    1.875622100379
 H   -0.723741077250   -1.725815149045   -0.945518719707
 H   -3.425335187204   -1.992527747165    0.125342037527
 H   -2.592480168799   -3.160191514631   -0.881264542323
 H   -3.095296990459   -1.610833885211   -1.558230864368
 H    2.888548479117    0.694823863346    0.391422541191
 H    2.131080802698   -1.645735667214    0.349538787867
 H    3.441313372085   -1.701005647118   -0.816456369789
 H    1.828694413516   -2.245626637558   -1.271196333190
