27

 C   -0.075361277036    0.346589051818   -0.389381522282
 N    1.288549829166   -0.119838130854   -0.615980961758
 C    2.303561783716    0.337921661843    0.270334560963
 C   -0.671886294362    0.704259402172   -1.755359035766
 O   -1.931176592748    1.336874748189   -1.679466801080
 C   -0.895583680008   -0.693966593867    0.396730727349
 O   -0.915349310354   -1.849017153584   -0.400115362160
 N   -2.248931849748   -0.344310044812    0.743164326583
 C   -2.401137086818    0.535467821551    1.882763565575
 O    2.015755904090   -0.061489268320    1.599135367426
 C    3.661331795479   -0.193152525769   -0.163744565043
 H   -0.027306927519    1.249941916069    0.212769484953
 H    1.304335511130   -1.116546032965   -0.706050003270
 H    2.309870578222    1.424693547351    0.231853347893
 H   -0.815837496873   -0.192928827098   -2.338058103453
 H    0.038425242168    1.333486435287   -2.281829708948
 H   -1.818953733611    2.223387289675   -1.365941761521
 H   -0.364609008038   -0.891949895836    1.320651024802
 H   -1.548525205543   -2.443920807782   -0.019871127116
 H   -2.719774729241    0.028682247769   -0.056635892804
 H   -3.456937885505    0.673384536011    2.084352383790
 H   -1.954209033032    1.523533225333    1.757114547857
 H   -1.953450557373    0.080552783544    2.759473953295
 H    2.663180713673    0.297668703553    2.191068452329
 H    3.663697648695   -1.278048829586   -0.133945528312
 H    4.444617360499    0.161226843175    0.500512791481
 H    3.892156707631    0.131029042505   -1.171193235850
