27
ser_c12
C -0.12291731127572507 -0.11551300181114814 0.5355729088323012
N 0.8153415658097432 -0.6076531584867428 -0.3708897846608763
C 2.179058473763813 -0.4116826260038582 -0.24066119914552567
C -0.28620414311153386 1.3524262723659033 0.7095416830288975
O -0.6274240493713772 2.0895694876370783 -0.3837446834437661
C -1.4207377269578043 -0.8922097711881785 0.6142732678088855
O -1.0972062471737603 -2.2101980257854397 1.054737458063499
N -2.221731304079826 -0.9635490588072939 -0.5297436060458133
C -2.8391355976080317 0.1886456208595639 -1.071983247049651
O 2.57247339482866 -0.9571400882200524 1.0166165787469257
C 2.7774246093759762 0.9341370992121126 -0.31085832294422727
H 0.3568477085309467 -0.43924138077516894 1.5878973597584551
H 0.46103347251337085 -1.023313234112837 -1.2494161915049933
H 2.7039013701303314 -1.0691244517988572 -1.0025896649293362
H 0.648539769612263 1.8257313852343584 1.1379126654520653
H -1.0410740010825617 1.5481751944379984 1.5228595377463667
H -0.2578364637159666 1.8078343807346051 -1.2303032041149808
H -1.955448694131359 -0.46010724851096496 1.507829730049516
H -1.6813461200619537 -2.4925611231013036 1.7921984978130012
H -1.9021625094966503 -1.6342868174754235 -1.2484792256708015
H -3.0413395260923295 0.9402050549134653 -0.2623813353442576
H -3.8465120735555036 -0.0728070410636014 -1.5576537428766553
H -2.2419705825956586 0.614434629392219 -1.8809604543291696
H 2.995761249659907 -1.8243675767013896 0.9242728934476312
H 2.912708365934207 1.472722053362272 0.6417634546354963
H 3.8436775359485607 0.814288067383059 -0.6924731855971811
H 2.316278834202365 1.585585358309631 -1.0888971258822169