27
ser_c15
C 0.11790731229289292 -0.18059849133418818 -0.5439373386412601
N -0.9139771745434491 0.45702544063125367 0.19635368256213284
C -2.214280013667994 0.44054388547813683 -0.3616927246487901
C 0.33180300446785294 0.509388470540999 -1.8620576998247471
O 0.6892978249382457 1.8282829902284343 -1.7810971096231862
C 1.3500971839456115 -0.43198767471891464 0.25695900409424527
O 0.9907732168960339 -1.2910421571874269 1.326583878905962
N 1.9565510756815783 0.7291451733947883 0.8619514735214105
C 3.1805163527474094 0.1926512802357214 1.5042291962806946
O -3.0667974940265696 1.164671038236388 0.5017700362045928
C -2.8043582511492025 -0.9408674454317508 -0.4519054477034266
H -0.23881285629038046 -1.2215405221591282 -0.8411642233611093
H -0.9536393947831622 0.1913742686802708 1.216789942959832
H -2.2606308091297933 0.9714416932428055 -1.3613446995640883
H 1.1354614861771273 -0.04061989046708217 -2.4176333588559653
H -0.5886864698634346 0.35648403241283655 -2.4517908213869406
H 0.3014308592827186 2.3361729585744047 -1.026629406208304
H 2.13914842354453 -0.9333175204072831 -0.35382969041373585
H 0.8365751350350246 -2.2038291480677104 0.959142383049114
H 1.3579930820869546 1.0275226392818033 1.6940054334368528
H 2.8332374404699747 -0.45530303007275863 2.3339424440050256
H 3.8837366729575327 0.9726909727995543 1.7949664371114633
H 3.633339037987723 -0.48112522996317886 0.7117697474494944
H -2.7845142039195547 0.9063786799759412 1.4314938843786484
H -3.6594639686389896 -0.9973617176286791 -1.1601393635210242
H -2.0959878222335693 -1.69782698276922 -0.7508468398364334
H -3.156719650265154 -1.208353713506017 0.5741111796295632