27

 C   -0.315438408687    0.058028977450   -0.514198111004
 N   -0.938018947219    0.053026487538    0.800484444182
 C   -2.208137249077   -0.582129881940    0.949979892433
 C    0.035759107181    1.482360836209   -0.973769741607
 C    0.841885281518   -0.958584429008   -0.583021129979
 O    1.467264883438   -0.904711638134   -1.851435438859
 N    1.795850839055   -0.776902097290    0.459495057942
 S    0.893238295879    2.489873154953    0.297477223885
 O   -2.150355964331   -1.903571093427    0.439697042010
 C   -3.333318186452    0.201287130444    0.286097746138
 C    2.803059312126   -1.817030678179    0.554627048332
 H   -1.035029983244   -0.297724329501   -1.243513899504
 H   -0.284604220194   -0.290404352777    1.474710934394
 H   -2.399662248760   -0.626356886223    2.017706064267
 H    0.657179028683    1.436374095948   -1.855575404645
 H   -0.883525712074    1.993157395334   -1.226629687518
 H    0.400371809063   -1.939419829301   -0.445409685165
 H    0.948731173622   -1.378947219070   -2.486825238512
 H    2.220341408846    0.126498461634    0.400213140475
 H    1.539762398752    3.285393734493   -0.544899893884
 H   -2.992893941121   -2.325845492411    0.539811387947
 H   -3.188589930765    0.267560597718   -0.786547919628
 H   -3.379614308705    1.203288758337    0.694783244679
 H   -4.290394961780   -0.283695785215    0.460485324472
 H    2.319968698974   -2.770139267706    0.743449651748
 H    3.451182738660   -1.603460783169    1.396441602345
 H    3.413494755442   -1.915083223636   -0.339303461313
