27
cys_c7
C -0.18247736365357867 0.15466228911068436 0.1861318890567567
N 0.9727051810123135 -0.1681840625611031 -0.6526423973998928
C 2.2429945593736575 -0.027036762964356427 -0.03267176724205201
C -0.11495494087221764 1.6649614953633005 0.502289164637635
C -1.3962689348141275 -0.03065022583934565 -0.6949793404145078
O -1.4526847140814303 0.8360594266333186 -1.7421966291576314
N -2.635843380833691 -0.21976955636938703 -0.034178853652336416
S -0.14282895954077546 2.6150795020939053 -1.0678505900594124
O 2.154642715345159 0.12845044775700334 1.3563831752732198
C 3.0616762749958197 -1.285078799928243 -0.24372285877288413
C -2.665880940657907 -1.4625954281355524 0.7365150823709229
H -0.21746943674034805 -0.3857251027972578 1.1342565311785517
H 0.8315487657852818 -1.2116794867448037 -0.8790876918155384
H 2.8016900499155377 0.8019099030844259 -0.5049000911577695
H 0.7802734322770696 1.8840919018835383 1.0840379588619158
H -1.0181109594907616 1.9105109460898346 1.1265692609590054
H -1.2409363752978257 -1.0687755083903112 -1.2319933135058765
H -2.2921640602355793 1.3404838734835893 -1.8265410463899687
H -2.966691754359943 0.5862072682247861 0.5344640363424276
H -1.2001554081818542 3.5552352894965042 -0.9824365007489789
H 2.9711915434305545 0.6198350777604846 1.6031867310899777
H 4.114160015764356 -1.1130784545876578 0.07570214225786658
H 3.051176713895829 -1.5825721027365283 -1.3038931917357528
H 2.6050555369056494 -2.112163357259892 0.3246946339978978
H -1.6604787794966567 -1.944493468229312 0.7706991582428218
H -3.141861496581973 -1.3255026753048738 1.6973003390456307
H -3.258307283862653 -2.160182429132757 0.06486416873800965