27
cys_c5
C -0.14860362224618376 -0.35103876995631733 0.6562213792662465
N 0.28416709471184315 0.2034734982752097 -0.5409771269647412
C 1.515257814584392 -0.15690135423911059 -1.118145101442921
C 0.6362047005033842 0.010005435602839863 1.874742947338834
C -1.6270569001775623 -0.041704104655141586 0.8877259567587208
O -1.9761117313266137 -0.6212756785840589 2.130893321601424
N -2.491077846957705 -0.5574833355482398 -0.10834538560607505
S 0.5856498607328359 1.825018900563787 2.1411460708614234
O 1.5251399579393394 0.3731108795301308 -2.4355406179560997
C 2.7574631366244238 0.18134639969217842 -0.38958137070385057
C -2.3065610996507755 -0.021805242085276396 -1.4093543384062013
H -0.09342108073402278 -1.4840176657358628 0.5541861513748808
H 0.09365888080611695 1.2370183661535248 -0.6394315538604453
H 1.5486007617519613 -1.2838072806171823 -1.2956005963013155
H 0.09694232732618148 -0.47538142255354526 2.74275878730687
H 1.645413997340475 -0.38234596213378974 1.8588961383753084
H -1.7248043114942886 1.0517341239522935 0.9852291362391593
H -2.258336883511963 -1.5472646192014958 2.0470155599426247
H -2.693930507440343 -1.5579885507937257 -0.053689843872296465
H -0.05302309238050664 2.4406528644743344 1.0432227180232887
H 2.1016426264597428 -0.14291299787429543 -3.032129069859345
H 3.1982312010030842 -0.6881045634338434 0.1799016443594872
H 3.589126428786071 0.4917770740344381 -1.105168475525248
H 2.6746537201760527 1.0327788086089749 0.2931127205063377
H -2.1742581758528 1.0833215736624289 -1.3141029073482677
H -1.4565912944397637 -0.4548801273261427 -1.9339856123577523
H -3.248375962533426 -0.1633262498120605 -2.0190005317498882