27
cys_c17
C -0.20477509426889134 -0.049064992045573054 -0.025792850375208183
N 0.7119211105004113 -0.23035139255281004 -1.0716623669117744
C 1.9586513889829926 -0.8103850420242569 -0.9509004290554972
C 0.35537798031960544 0.8890799463538527 1.0059570602326124
C -1.4205878105247205 0.6476886133461331 -0.677632112508722
O -1.8542368025601896 -0.22283707446449005 -1.7450306243513531
N -2.5107577527030465 0.8049268430573814 0.1976217817387276
S -0.786577416758048 1.1755926789881839 2.4067853903109406
O 1.897437689875546 -2.1881622769905293 -0.5683478296362167
C 3.027310300304241 -0.18589540728585346 -0.1351774032651854
C -3.1249158083432813 -0.37970859140320173 0.6720417386879822
H -0.5407484482373012 -1.003190053677094 0.39502349473021764
H 0.5032372702538901 0.2985499426871476 -1.9416883471727973
H 2.3726541612201064 -0.903614979723831 -2.013505977692703
H 1.3013796498407986 0.5525720556663147 1.4496361313040893
H 0.5060477031751708 1.8901733752827754 0.5241368034208327
H -1.1127075935205908 1.5821207652375116 -1.1812035808411752
H -1.1474771011366642 -0.8931597624636967 -1.9100315699141086
H -2.614612561832393 1.6002693621389705 0.7754770657502115
H -0.3800034469585325 2.329173064549884 3.1098522046467445
H 2.7891607495838135 -2.593822457941511 -0.7838488296774626
H 4.021535254442953 -0.4026293639569751 -0.6562259887441437
H 3.0055363662404604 0.9102268626166515 -0.10018256453901682
H 3.186114743965753 -0.6844284961189867 0.8555680043449316
H -2.5776329049155238 -1.309658050604728 0.37582924005377805
H -3.189745542830443 -0.37360124557864116 1.7654486010324575
H -4.171586084115866 -0.44986432309261604 0.22785295843179748