27
cys_c9
C 0.09590049701288361 -0.3187282642309479 -0.7306935089060352
N -1.2048807875111722 -0.8333529955336416 -0.38946231986479846
C -1.709859098750979 -0.49796032186928385 0.9013233957372401
C 0.16325494088733092 1.1607604220986598 -0.8329255562072765
C 1.1951056071204262 -1.0678791275644508 -0.09846733856615454
O 1.208994558993328 -2.3798196389906745 -0.5801388387199762
N 2.4854018472139017 -0.5303030767071014 -0.07367391945759019
S -0.9766707976701805 1.7558252546721322 -2.1633268071180134
O -1.01603803971573 0.4430999928364254 1.6081524406898202
C -3.160738397675558 -0.024501838399429078 0.7217123794000433
C 2.6967801594440135 0.6218859831204467 0.7557472395507462
H 0.15821003190344343 -0.6315695577922199 -1.8666897856957916
H -1.2361909757215257 -1.8812757927000279 -0.5029440539796564
H -1.803138777780574 -1.4210252000978987 1.567657014035426
H -0.11730547776122809 1.7245458700483938 0.060354798651061484
H 1.171215443104418 1.5114170378609824 -1.1655749843999756
H 0.9377081683723066 -1.233020083786978 1.0351442007405638
H 2.0852994970828616 -2.595371144306354 -1.047157936258099
H 2.9866201704267885 -0.5023976331861401 -0.9824583649531217
H -0.3056548392395383 2.6219938862931533 -3.037856819996207
H -1.6065130802589678 1.1947641829789648 1.86622070973965
H -3.6188752597844283 -0.8244086791926613 0.08229243593940741
H -3.6865450968062414 0.11565753894235667 1.6603205393662364
H -3.101194212600769 0.8615397878381726 0.09565496332030214
H 3.59992351719586 0.4080618242978686 1.4167313918460116
H 2.941683697637993 1.5525100324902208 0.2549322630860649
H 1.8175067048812676 0.7695515408800269 1.4451264620201862