27

 C    0.484211908076    0.310303260832   -0.138051994641
 N   -0.429874607234   -0.415018797768   -1.020866430871
 C   -1.674604708693   -0.994888600079   -0.603673690413
 C   -0.187353210924    1.301988509841    0.829518300579
 C    1.487445074412   -0.619364470694    0.584280243631
 O    2.286645678116    0.129088901340    1.459849939800
 N    2.407012677159   -1.265212689034   -0.336399153778
 S   -0.978724565946    2.711392417937   -0.029352580531
 O   -2.593843777502    0.015191847089   -0.234789590703
 C   -1.564640845531   -2.031604507179    0.506580574318
 C    1.953130278313   -2.413226105510   -1.104497257528
 H    1.107469143040    0.889236349182   -0.811393949014
 H   -0.612700467297    0.149239829970   -1.824640789771
 H   -2.058819521259   -1.493089679869   -1.489617258775
 H    0.535414448679    1.696532862804    1.524071221473
 H   -0.968085965735    0.829448579044    1.402375801739
 H    0.970719582519   -1.329508766255    1.220988453103
 H    2.867551366112    0.667104351694    0.934363961080
 H    3.183350083006   -1.554762007123    0.226419457427
 H    0.067107018724    3.529334268019    0.001857418687
 H   -3.458927643990   -0.356817444830   -0.127160651939
 H   -0.869892817511   -2.817613871844    0.239834591730
 H   -2.537692633736   -2.486529905748    0.668454297062
 H   -1.256267894358   -1.585379967753    1.443524372468
 H    2.814944412826   -2.846265217663   -1.599490922978
 H    1.495052391832   -3.190947801001   -0.490110313860
 H    1.242234220424   -2.112662773767   -1.855537566553
