27
cys_c19
C 0.255782332814487 0.2071372201013366 -0.38883485019921604
N -0.8087972059872326 -0.47372159783083223 0.2506905010942622
C -2.061474000100226 0.19172911830283823 0.28195665078170973
C 0.6249213526523099 1.463038349917225 0.32943196221057014
C 1.3992833362737518 -0.6685549981417727 -0.7867195749564624
O 0.9509653932874577 -1.658079211399579 -1.719209793995513
N 2.176565838983077 -1.2683901843250815 0.21143911989796152
S -0.7101431795253046 2.662517169387807 0.42112972841216556
O -2.3757075027046026 0.8489701808908127 -0.9159330725643846
C -3.1958169532572125 -0.8544675293967661 0.44325970215385174
C 2.9498063374324723 -0.41925782979917403 1.0418446822100802
H -0.21272013405076257 0.549009330287962 -1.4022552909650259
H -0.8176534448984111 -1.4944741731034619 0.218132504122692
H -2.2219317461368933 0.8803290856838664 1.13814935377401
H 1.444364952578329 1.9539250096555487 -0.27604145000830577
H 1.0615244981171499 1.264710494625256 1.3328160345567321
H 2.052277696470869 -0.02214795125136126 -1.4534352310934753
H 0.49215004953663133 -1.2185609534421005 -2.4523686581915816
H 2.597757758340572 -2.1839769741067094 -0.02221087976117737
H -0.20271221015667923 3.933927968604459 0.1100566562716363
H -2.739504188892911 0.15187964572608423 -1.5476465956319854
H -2.982558926986469 -1.711549715199065 -0.20623967494415787
H -3.2625290860239655 -1.1363938241363576 1.523924829296079
H -4.146739368917519 -0.34095315901191525 0.20942546949549756
H 3.146860423576058 0.5342719713003671 0.5067817304919976
H 2.591277405064059 -0.2967149016775095 2.081884344618862
H 3.9947505725111316 -0.8942025416620636 1.0699718029232241