27
cys_c4
C -0.012093986525732639 0.6036770946007499 -0.29866596192669154
N -0.7317851575379516 -0.3933969830619504 0.5153240609811204
C -1.9858167816406707 -0.7132170545149741 -0.13318012904542795
C 0.1418433405956691 1.8752369921150178 0.4467735727470374
C 1.282068886079549 -0.07149001397943672 -0.6908483987369054
O 2.104939059511435 0.6772353521081177 -1.4762383958755068
N 1.999382225198319 -0.5030438730300099 0.5024567525533684
S 1.0181174985072359 3.050803611120515 -0.6634425180330418
O -1.855478281002075 -2.032857986295575 -0.6197871912277438
C -3.1961284691228458 -0.5829943191837562 0.7205395441502565
C 2.847821522144073 -1.598063927663565 0.12487737435440012
H -0.5952855591414883 0.771953913417746 -1.2270574324779275
H -1.0036928787628383 0.1026675758179923 1.4350741970168126
H -2.1210818719405107 -0.03449964811679748 -1.025034139324339
H 0.8509758594469017 1.7754402408314032 1.3280048874358708
H -0.7825502567047681 2.316540837202445 0.8145263129963115
H 0.9545171571948866 -0.9870578737020951 -1.2614978580607947
H 1.694737149143789 1.1277748417308522 -2.225384607098122
H 2.536480784465978 0.29023696793881165 0.8670484211452272
H 0.9300908855227957 4.321409626242429 -0.10489178206339202
H -2.7110973669704435 -2.4459576995605317 -0.785733615262563
H -2.9259146499576576 -0.6901877863560076 1.8109754360818802
H -3.758857227902712 0.36646852909756367 0.555888658038549
H -3.8643237879434658 -1.4731573910127278 0.489958133770679
H 3.749068508908355 -1.2634242000325167 -0.40110343795551706
H 3.1577005316541134 -2.188704833513545 0.9827583077158162
H 2.2763628667799765 -2.30139199220016 -0.571997166895494