27

 C   -0.130571871175   -0.006592760561   -0.284673934044
 N   -1.100068176570   -0.777964818789    0.467653498002
 C   -2.495323005318   -0.581506802385    0.217215067766
 C   -0.101647151416    1.473055262728    0.142103016183
 C    1.210738867967   -0.740796876842   -0.142670187662
 O    2.191152155413   -0.222855160393   -1.010059839473
 N    1.697605429890   -0.680529613710    1.202064147867
 S    0.949382974377    2.546244955450   -0.912337099488
 O   -2.728565266380   -1.003014080377   -1.102651002535
 C   -3.312937297565   -1.399810242853    1.205040477135
 C    2.733067873255   -1.654740651018    1.510921812187
 H   -0.422362647538   -0.054875779262   -1.326495710604
 H   -0.874936297734   -0.799391129712    1.440353197568
 H   -2.797888550611    0.467049714710    0.294817173605
 H    0.212287438339    1.558714629312    1.174156679334
 H   -1.106982122788    1.862640965499    0.076488602043
 H    1.016979552688   -1.780518670116   -0.379194054803
 H    1.913600400551   -0.306200663499   -1.912771830725
 H    2.055030517474    0.240342990555    1.370911348632
 H    0.227000597535    3.650003847710   -0.768302723322
 H   -3.569518478517   -0.677581775346   -1.391900056223
 H   -3.037769208563   -2.444279401412    1.123871811847
 H   -3.146689090202   -1.066295345614    2.225357117866
 H   -4.372827813468   -1.300461662377    0.991709216390
 H    3.599888372824   -1.586478800070    0.858653346529
 H    3.057451811933   -1.511522443987    2.534986932905
 H    2.320135749255   -2.653984837587    1.432276155481
