27

 C    0.100549352239    0.104720792845   -0.950193377839
 N   -1.104719524716    0.379007199729   -0.190790607311
 C   -1.876751914250   -0.753452662454    0.287753615601
 C    0.701608413955    1.435650987753   -1.423645254723
 C    1.110565107471   -0.797659687977   -0.208028781249
 O    0.775834559325   -2.162087321801   -0.408974297536
 N    1.149662148003   -0.581961975304    1.197571313511
 S    0.961744206710    2.649358643456   -0.074810266902
 O   -2.138778990407   -1.708510752335   -0.707375613812
 C   -3.209570701915   -0.258939622118    0.816358334633
 C    2.322245282100   -1.105245462909    1.864330306760
 H   -0.121796494391   -0.439746703957   -1.869396041179
 H   -1.700502808440    0.960036364610   -0.750193371476
 H   -1.310970660814   -1.213535947646    1.082728712094
 H    0.033637950815    1.877446532050   -2.152177934706
 H    1.647224397703    1.255668877924   -1.917696554405
 H    2.088307077274   -0.640040618658   -0.673486302174
 H    1.196606439217   -2.477754452674   -1.196440133584
 H    0.986430413476    0.376135738426    1.420229287204
 H    1.946941637388    3.320631199108   -0.656232227349
 H   -1.374762738485   -2.268068475634   -0.771022152246
 H   -3.798465986357    0.170673709912    0.010744153866
 H   -3.769952286926   -1.086904491212    1.232897415766
 H   -3.061488516015    0.492976986042    1.582506372301
 H    2.357539721805   -2.180180404932    1.745141280704
 H    2.255368266436   -0.888195021738    2.923287210315
 H    3.259073081950   -0.686820400125    1.488217564296
