27

 C   -0.015732360181   -0.075501881587    0.118327780970
 N    1.206027144704   -0.187186186648    0.902704570168
 C    2.450750010577   -0.331129530197    0.177242612976
 C   -0.501427789419   -1.504514642788   -0.191238638869
 C   -1.040266330967    0.725985615723    0.959957495073
 O   -0.476338523929    1.944333612752    1.351397863886
 N   -2.341167129086    0.935436649460    0.376346473063
 S   -1.592299740603   -1.602392119920   -1.660424728762
 O    3.416284727734   -0.852221788755    1.040219696322
 C    3.022882061653    0.964828075096   -0.378528866043
 C   -2.447512567576    1.804109982286   -0.779367130049
 H    0.155023520082    0.452040265402   -0.821215534492
 H    1.277299427974    0.584150355477    1.536742088347
 H    2.273125881146   -1.020704746086   -0.644440733051
 H   -1.009702414683   -1.911955051462    0.673886303701
 H    0.357260404663   -2.127395111006   -0.386805960788
 H   -1.189477436690    0.177085334439    1.880889609291
 H   -0.298861240980    2.483329818866    0.592218420224
 H   -2.811172334572    0.068585856398    0.220664681636
 H   -1.622069864418   -2.924480363441   -1.755870537118
 H    3.007654986072   -1.540381631066    1.549021122263
 H    2.341861067918    1.421401354539   -1.089575596818
 H    3.208075715177    1.663519720112    0.430895110508
 H    3.962881690144    0.773073283688   -0.882758807184
 H   -2.226394142221    2.826723825203   -0.494774845736
 H   -1.813025581366    1.534100963925   -1.623493760301
 H   -3.473154924200    1.788093249398   -1.124077733415
