27
cys_c15
C -0.0148485217849945 0.16762351057638183 -1.097220118432758
N -1.2129223124898438 0.28375520915528263 -0.3353942835881317
C -1.677453347184753 -0.8608579201375011 0.344385935388113
C 0.2933478724725982 1.5123903291496408 -1.7188222841261365
C 1.1804422946290194 -0.28516497406476815 -0.31142571749210823
O 0.9936717884005217 -1.5433558727731849 0.26109154538501167
N 1.6675814631241015 0.6769398056595091 0.6263626482353668
S 0.5071420353223279 2.8256660854467275 -0.4950847690263665
O -1.7205219115824384 -2.026032389133134 -0.37313162050882276
C -3.0761519000026025 -0.5679822985168747 0.8885830667412815
C 2.4891291849034936 -0.06775295220646226 1.5965920905540405
H -0.1312632375219643 -0.598963551891059 -1.9351818817412683
H -1.9107854105736446 0.9456361220338758 -0.6686042049203406
H -1.0198510041228181 -1.0019103298328134 1.2531957678017374
H -0.605362322126563 1.7702610591365593 -2.3510996655029652
H 1.176110609911152 1.4621567952925136 -2.3943602976282246
H 2.002013480371553 -0.44297101575796444 -1.0756650844427131
H 1.0954441176462273 -2.2115673716050486 -0.4431739074588633
H 2.374103126942549 1.2904630935790409 0.11265080144850534
H 1.6068087926801804 3.6559305967987896 -0.8284116063378664
H -1.8699822161354107 -2.771404669791739 0.2851689946936474
H -3.848050373044463 -1.1117841925515435 0.26968289966112097
H -3.15546552776431 -0.8932548727529882 1.9425031127864758
H -3.303408060786083 0.5124272776496235 0.8796091798375293
H 2.0286962811228415 0.06218868427385522 2.6082359788509937
H 3.5261120627244744 0.3391553696411016 1.657066677096015
H 2.6054630348687127 -1.1215915273779073 1.302446742726502