37

 N   -0.620555556018    0.407663987603    1.039198455042
 C   -0.352507627650   -0.541978976481   -0.046143748747
 C   -1.485598890613   -1.584832916144   -0.099442755950
 N   -2.639548876891   -1.030227042240   -0.739780730805
 C    1.004682715830   -1.234665926781    0.141016415057
 C    2.239776117977   -0.326460056996    0.070108059921
 C    2.540841109564    0.228630443267   -1.325162179426
 C    3.790032941063    1.116998728740   -1.389010806719
 N    5.063795898976    0.480228524276   -1.096156941695
 O   -1.717091985598   -2.098356500754    1.188102902384
 C   -0.825469984917    1.788173781410    0.712664782577
 C   -3.790717369255   -1.907090928314   -0.802319489471
 O   -2.131014257633    1.904144607943    0.199655622591
 C   -0.664426743188    2.654991466720    1.952455073262
 H    0.033400935492    0.309216082840    1.786035926803
 H   -0.367489166129   -0.008226267943   -0.988985067247
 H   -1.166084645000   -2.439465222515   -0.682857854426
 H   -2.874744743962   -0.143978892286   -0.338002248176
 H    0.987903902829   -1.750364033354    1.097881966780
 H    1.102730608124   -2.010059515851   -0.613999446252
 H    2.142127578909    0.500777280002    0.771551447324
 H    3.093299459262   -0.905973110708    0.412055922178
 H    1.695739000329    0.811261900132   -1.683804060239
 H    2.656707894157   -0.599426816925   -2.023679097820
 H    3.862969550268    1.547039002493   -2.382910515435
 H    3.675871796149    1.952533749707   -0.703765020235
 H    5.098264260775    0.140293076733   -0.155473976065
 H    5.221332728606   -0.302622153043   -1.701723338068
 H   -1.895648088399   -1.353935562372    1.751532977058
 H   -0.128820762261    2.125456416805   -0.057488187199
 H   -3.530280708523   -2.808689618462   -1.347907603161
 H   -4.173825598750   -2.207629993867    0.170369909831
 H   -4.585023896703   -1.410257243009   -1.348402023072
 H   -2.198472728003    2.682379608193   -0.335905825000
 H   -1.351433756457    2.322380888463    2.721932312739
 H    0.350250424916    2.611774648849    2.337699145663
 H   -0.888117896586    3.690311283148    1.718082096241
