37
lys_c7
N -2.0275476959810406 -0.5169140692522299 0.758901526282705
C -0.7084828136678623 0.027145605834228776 0.6734246094198907
C -0.8228396438568686 1.4848903033322478 0.19605806179683383
N -1.6085154212592967 2.2049626700932814 1.2024982558581088
C 0.20345575573166774 -0.6664295072873198 -0.25426521887976594
C 1.5633084956730727 -0.015503580182742003 -0.254837947459371
C 2.514462902570415 -0.7517073016691496 -1.2003919272201604
C 3.8559682647546665 -0.01581733075675607 -1.126919956446637
N 4.2794797681290095 -0.09137837757806387 0.2586175710491054
O -1.4080801125513862 1.5789093637917024 -1.0410287731282724
C -2.2685983684110105 -1.8060021204528849 0.22963703422904466
C -1.9853592746507238 3.4998127679039595 0.6954666353845964
O -2.1149647082221845 -1.879652876197836 -1.1563397827199475
C -1.5309273283177283 -2.920882328224978 0.9351453350464006
H -2.7006224128732383 0.1790493241132066 0.33385745158711116
H -0.28684191530901665 0.07348988502113375 1.691437357526715
H 0.15091702552558708 1.992936811757571 0.19653338107733806
H -2.3627181258986303 1.6526556063964677 1.6198700747275536
H -0.1699509041724646 -0.5870945446529399 -1.3122336045659988
H 0.36734491270571057 -1.7453183547711166 -0.09631772596698925
H 1.5532740682778676 1.0300613949318533 -0.6616885406457276
H 2.0334145635844494 0.048132358225832124 0.7466880172468865
H 2.6432345037637797 -1.7680366770138063 -0.7872874185965539
H 2.124260375784724 -0.7321705262890884 -2.230183046498115
H 4.570866687971193 -0.491327150274923 -1.8123733958791508
H 3.6539988654082185 1.0618176193811724 -1.3765659256113978
H 4.617136721320412 0.8452413545598868 0.6035350374365462
H 5.019362269803373 -0.8256390261723953 0.35650570837956136
H -2.387714420063353 1.66091679809919 -1.0372209649887554
H -3.366398881082636 -2.008569864087303 0.40162361793678236
H -3.067776170467714 3.4344076982093523 0.4127633823273977
H -1.8329408147810267 4.306869357106974 1.4393422675480074
H -1.3960531505779912 3.6982717939147722 -0.23155937197803866
H -2.921645347276548 -2.214110693043918 -1.6242624277472764
H -1.0630897335232667 -3.585974815241988 0.20607822385552516
H -0.86266562135391 -2.561666828662933 1.7475164645930357
H -2.2567523167061982 -3.595374740860515 1.4979760150231174