37
lys_c28
N -1.7056823937001708 0.9824184623894096 0.18149897109141935
C -0.5750637659178536 0.17189793861913927 -0.13977642014202077
C -1.0272744043176578 -1.2756856969861001 -0.21372545185056083
N -2.0325083847860794 -1.4830440569472534 -1.2362452966241446
C 0.510620070423941 0.36653469975390474 0.8676554298530494
C 1.7412498991828835 -0.45479193982386773 0.6039530640088254
C 2.3710468086135736 -0.14413925987039522 -0.7231665494510415
C 3.608907939406325 -0.9885571049117322 -0.9582675060923841
N 4.559758592081566 -0.7153290010206937 0.08327016344860817
O -1.5638758174778995 -1.70349263961323 0.9963699286145188
C -1.4048981444932116 2.3883131355446547 0.3231186215949311
C -2.3417128944718515 -2.8991995195548523 -1.2634081256261278
O -0.8843213427142033 2.9666525661552283 -0.808322397364358
C -2.7480092682742274 3.070325605737409 0.6254031056759642
H -2.4718731029916534 0.922767479469873 -0.5267131026234407
H -0.13340610467981134 0.4187616007611742 -1.1377921220485412
H -0.17422181689035457 -1.9460556539974478 -0.49209883234791885
H -2.930272393379956 -1.016107560090266 -0.9060703746062487
H 0.09963092775452773 0.23051121397225519 1.8701003634540685
H 0.8357196344941172 1.4334436677493942 0.7981562181635214
H 1.5520451426722786 -1.5464402952407061 0.6338521752995057
H 2.477321556729521 -0.2253473188132864 1.3971022807426912
H 2.63202457709361 0.9213754558185726 -0.8376312683335629
H 1.682961648210593 -0.387612739568237 -1.573874912195674
H 4.043787467612581 -0.832655751156287 -1.9454325436753457
H 3.2774514620823507 -2.0492873505138225 -0.8212432883859709
H 4.3273378396404105 0.19814921070194577 0.5135526524949943
H 5.512756062851161 -0.6025249863024862 -0.3441125632829267
H -0.8576712740896136 -2.206993321452926 1.4797781168024549
H -0.7630221980866699 2.629022832017226 1.1810231738837533
H -1.5669717052468226 -3.422274555544889 -1.8575234576391633
H -3.3546922545508164 -3.0019296437055174 -1.704031387114374
H -2.4083743330518392 -3.294005909750899 -0.2125278856551459
H -1.0682805738797954 3.955194056916624 -0.7477460290158693
H -3.480869240232275 2.8696417034281154 -0.1663628926437057
H -3.1241598351243374 2.5477743495551457 1.5468406823866319
H -2.6154583804922416 4.122690326275061 0.8845224729518596