37

 N   -0.853458199545   -1.202513890051   -0.864465654943
 C   -0.510151024101    0.032535255991   -0.173876903501
 C   -1.442110623730    1.208779534311   -0.527448994745
 N   -1.158121960414    2.493003205412    0.071468721192
 C    0.954140864596    0.370421958606   -0.493710571667
 C    1.946263994483   -0.625843604645    0.106814381431
 C    3.404686555475   -0.382626872323   -0.296241071629
 C    3.972702011570    0.990611045148    0.064271667730
 N    3.798312912100    1.286711606276    1.479669674472
 O   -2.737242079991    0.828019555370   -0.161280720474
 C   -2.017207056289   -1.998238085536   -0.516867678834
 C   -0.968343853930    2.538240547645    1.511346708907
 O   -1.935181892987   -3.175860283061   -1.273880564438
 C   -2.083830447746   -2.312385263349    0.970012010868
 H   -0.861572950627   -1.056940100972   -1.856359591093
 H   -0.593941999331   -0.147355885916    0.890027056776
 H   -1.391121141313    1.363671196945   -1.605458585400
 H   -0.417573845921    2.960236569672   -0.408631335644
 H    1.185812691127    1.360070670792   -0.119104277663
 H    1.077529080490    0.408457388185   -1.577001647353
 H    1.667707196596   -1.628106901865   -0.197319831150
 H    1.864872756024   -0.587751876533    1.188443474132
 H    3.517434107937   -0.522715559948   -1.369709568591
 H    4.023190886481   -1.147560872414    0.171711851205
 H    3.458874074161    1.763000723476   -0.498101948188
 H    5.017216927775    1.023735432454   -0.252488212031
 H    4.170975494779    2.190003288060    1.700650717636
 H    4.297397772606    0.622740671626    2.041405726919
 H   -3.301536288351    1.580957039645   -0.282875985588
 H   -2.946669598983   -1.540493073376   -0.824142255415
 H   -0.961522995210    3.574090045885    1.830603419746
 H   -0.048217148811    2.071820770224    1.859315062535
 H   -1.802812724632    2.048224109477    1.995502442906
 H   -1.074732852685   -3.549535391352   -1.128658269236
 H   -2.328172114600   -1.435852147093    1.556503906198
 H   -2.856902723646   -3.054681691441    1.130951555010
 H   -1.137391376533   -2.717176368875    1.319351431107
