37
lys_c21
N -0.9551106230432165 -1.1614022273916045 0.07935887750443363
C -0.8266918611434795 0.22245658215523284 -0.08134606993239542
C -1.7435624516962025 0.9398191286372396 -1.0034724399411488
N -1.5518934077214603 2.3462163035255963 -1.0020930052997852
C 0.6352750260574789 0.4411697337832564 -0.5435605522367135
C 1.5138158018262147 -0.12242885902722773 0.5465210727993441
C 2.9609245201335725 0.0737847982392066 0.10634334432016117
C 3.8948963896496047 -0.4975418890824983 1.1678024963890021
N 5.257907912903615 -0.27019228574263676 0.6659666364329319
O -1.6485025228840844 0.5040304409960308 -2.3406893557950825
C -2.0646214071137523 -1.7947301431281757 0.6189309014032626
C -1.8668339874752475 3.0052845939497703 0.24096373428859252
O -1.7299253157412842 -3.1715578217953637 0.7871947778735461
C -3.3197930844195604 -1.690156249918108 -0.19188320060879255
H -0.2675683692740047 -1.750483043373949 -0.4399381420602675
H -0.8782417043078332 0.7018775768008136 0.9192738995711134
H -2.7969201385845452 0.759464102874232 -0.6833298107279665
H -0.706687251351855 2.7317508018780483 -1.3960910027693738
H 0.8727238824903772 1.5182410609355113 -0.6397338999058343
H 0.8076419718617605 -0.1381383629235309 -1.4592827987759243
H 1.3092596583749403 -1.1937960825764804 0.7384230907969065
H 1.3454020424048612 0.48997553536534955 1.473488473104935
H 3.0893975284350286 -0.44136514745561695 -0.8547229177790092
H 3.2023853608725634 1.1388404282303322 0.005962463660386469
H 3.7587897110555066 0.04993349671430446 2.1184168776439796
H 3.769956875621512 -1.5848744814018287 1.284219350134552
H 5.383963181838688 -0.9255862589680599 -0.13651911111918646
H 5.225420179839339 0.7063627052861117 0.2662621929527905
H -1.0643284328921159 -0.25935779379185153 -2.4468125065194166
H -2.276299326141416 -1.426261100015303 1.6704711765596054
H -1.9701209176211805 2.324686585847662 1.095799689021304
H -2.8504519257376573 3.565261420354717 0.15078132761188193
H -1.1132420853336535 3.7842852259696125 0.4806482669518349
H -2.477153959790016 -3.7102346200613714 0.4234640287802379
H -4.023014940961996 -0.9629457561712134 0.28186823777700615
H -3.8110549192920153 -2.720885797956998 -0.16524966969330662
H -3.0857414108385774 -1.4815026007612229 -1.2430179235799306