37
lys_c30
N -1.0491204716755538 -1.2908038893241534 -0.9253130716900839
C -0.7537745698073278 -0.06264918655323154 -0.2725334830072977
C -1.655110518036585 1.0920328945118227 -0.6232700977433872
N -1.1778709828111218 2.276870782826015 0.03689492850583467
C 0.66606502961197 0.36019511532202836 -0.6551230263079556
C 1.6506560710351745 -0.724893556129806 -0.21531029659647638
C 3.052368578663166 -0.3378806572725797 -0.5741381024756134
C 3.528925676344849 0.9270847722224773 0.04965306134245142
N 3.5334581314914546 0.9140501140452695 1.482974646531481
O -2.989572144721773 0.8776470688458706 -0.31307600850476713
C -2.3157225359836158 -1.880655301225297 -0.6560818128403008
C -1.1878108381944172 2.2317938047272903 1.4621173538418448
O -2.3578105335634882 -3.1047878523400354 -1.3677324782674005
C -2.497086838628569 -2.2586215376414005 0.8065494522766107
H -0.9113748900547141 -1.23042535326422 -1.945076325796907
H -0.7864249063029809 -0.16996722495193547 0.8349105369986288
H -1.5524249858291879 1.236295092551761 -1.7229469747406143
H -0.3949812857346161 2.7577223889412648 -0.41147171623555573
H 0.9839103080089792 1.2821948606237112 -0.16517679906456195
H 0.6657646013319697 0.5088300201796021 -1.7454377130557444
H 1.3870211125762304 -1.6297981430742858 -0.7989117770394415
H 1.4938808213997299 -0.8549159965875294 0.8706942855073064
H 3.0513073580977044 -0.16552695661910224 -1.6914675211021017
H 3.787412901831202 -1.134802963320503 -0.4051031105291001
H 2.9744681220803324 1.790131462035852 -0.37233386366177346
H 4.591153528335193 1.0803259727280725 -0.2723891447686447
H 4.21981667475986 1.5776451804835416 1.9016777726982272
H 3.5630437858506863 -0.02941255158575606 1.903150467563362
H -3.536558804730318 1.339644539091261 -0.9838784755334384
H -3.1979120033431694 -1.3154734997306667 -0.9742484782536888
H -1.6689729082497196 3.169989848011094 1.8294644938651028
H -0.13216649931776595 2.154984668117471 1.8218696721010785
H -1.7280892898446905 1.3521420212179658 1.81180102826751
H -1.5278898066300781 -3.6047952325684336 -1.1674510137342888
H -2.4814566018268938 -1.38341206256941 1.4580240961088797
H -3.5023624834848697 -2.7488393590918467 0.8599287101388629
H -1.7447588026470873 -3.0019192826320675 1.1287607852019759