37

 N   -0.730324359637    1.051585902303   -0.922239232395
 C   -0.333797492988   -0.000312289819    0.026566939665
 C   -1.478274451979   -0.497895212852    0.946442355802
 N   -1.155108107136   -1.624019066900    1.789403344903
 C    0.943773220460    0.356378120858    0.805770741571
 C    2.111151797770    0.884755062790   -0.040535836742
 C    2.652927023055   -0.053212354177   -1.125976628425
 C    3.294640327397   -1.336828545600   -0.606046493946
 N    3.896432938661   -2.079432920559   -1.705692447560
 O   -2.566267795051   -0.874901628817    0.160029267070
 C   -1.484888932834    2.220345683542   -0.602051590111
 C   -0.813738204585   -2.875233877873    1.143709886362
 O   -2.832456847460    1.870222078827   -0.286455619338
 C   -0.907281422337    3.088593939619    0.506031982387
 H   -1.133213330137    0.630244768047   -1.732591881994
 H   -0.091977004332   -0.837500420005   -0.616795157999
 H   -1.765168172891    0.304916723743    1.619385229709
 H   -0.481322218198   -1.370404640820    2.480795420579
 H    0.722869421340    1.092087208987    1.574181670282
 H    1.266862959573   -0.531869285130    1.339147773818
 H    1.809829795679    1.808561002081   -0.518755438163
 H    2.925653537317    1.138948061378    0.635893274678
 H    3.406774967214    0.477944454651   -1.698977148806
 H    1.861096985697   -0.302154984089   -1.828750773162
 H    2.564883673858   -1.926958647526   -0.049602669883
 H    4.086885064809   -1.082291803158    0.092129457341
 H    4.359415889192   -2.900765920602   -1.366815729425
 H    3.190288497382   -2.390191352858   -2.345920129315
 H   -3.020579725605   -0.083957853427   -0.102639695911
 H   -1.510402196874    2.806607888452   -1.515526806236
 H   -0.728600017782   -3.644322945561    1.903130080792
 H    0.119843332720   -2.862068459261    0.578286724811
 H   -1.612500706882   -3.155993248572    0.472424885873
 H   -3.355449271229    2.649370894080   -0.150929203416
 H   -0.957973336153    2.595056247761    1.467398453665
 H    0.120570572931    3.352965188270    0.294253075910
 H   -1.480555982440    4.008648219832    0.578820968958
