37

 N   -0.673239411748   -0.549281542192   -1.551869041555
 C   -0.354944534156   -0.495743782530   -0.128191484814
 C   -1.093826538292    0.713744509917    0.473244810744
 N   -2.504702496281    0.450710424708    0.506480945940
 C    1.149261859790   -0.490876427289    0.191295936959
 C    1.938359164477    0.716132647373   -0.332449320072
 C    3.383199996811    0.784626234180    0.178496045758
 C    3.524705689000    0.965600554275    1.691617960569
 N    2.803667792682    2.141434927656    2.156852407751
 O   -0.650465927112    1.008217869520    1.776044281530
 C   -1.107587500754   -1.777242911102   -2.152299404782
 C   -3.339594962649    1.633671108278    0.574985579874
 O   -2.381018723177   -2.048106999407   -1.620515307127
 C   -0.189706750669   -2.988355475424   -1.974146042123
 H   -0.002997455072   -0.078924743970   -2.120753093929
 H   -0.786837617859   -1.375653827748    0.335922194018
 H   -0.853427394096    1.597947920918   -0.111246457788
 H   -2.763116448704   -0.123460725733   -0.270742487793
 H    1.249455712063   -0.547245493394    1.267166571551
 H    1.590403729842   -1.401627073623   -0.207122088021
 H    1.970841249278    0.692395884067   -1.420401651041
 H    1.438746033961    1.639934034859   -0.066187081251
 H    3.920645388070   -0.115663345187   -0.116069692334
 H    3.875654347062    1.622258207707   -0.306266932252
 H    3.227406270446    0.050628738123    2.206553094715
 H    4.576815067873    1.111298563717    1.915573182538
 H    3.062580448059    2.358076690275    3.099780317447
 H    1.814402599562    1.977501267248    2.160746939008
 H   -1.135495066719    0.443661346244    2.365646355970
 H   -1.196891510938   -1.572106934049   -3.216115379608
 H   -3.097009348272    2.201754690215    1.464708838022
 H   -4.379757128658    1.336015566239    0.641556829429
 H   -3.226368801024    2.293768871784   -0.286878338200
 H   -2.647576708201   -2.929067322927   -1.843047471630
 H    0.794660402712   -2.782476423643   -2.380843072957
 H   -0.588911344545   -3.851057669754   -2.503055959852
 H   -0.085175158152   -3.254541941586   -0.928661333835
