37
lys_c2
N -1.06442098762851 0.7461091896182784 -1.0378980363167423
C -0.8641003470502474 -0.37566998800133955 -0.2477965560169103
C -2.0629805572766533 -0.6863733325414239 0.6041397773396466
N -1.9254046772706424 -1.9097190959565233 1.3593653055202002
C 0.4115268292156203 -0.35870052905008976 0.5776191658933525
C 1.6195873373430523 -0.251347417767853 -0.36751744805607345
C 2.898915277557468 -0.21085618918585283 0.426457083470978
C 4.0671281411240425 -0.12231205549603621 -0.4939647018095653
N 4.072095594682907 1.040834639916318 -1.3237207415739582
O -3.130891756553404 -0.9109826404997668 -0.2981737446725149
C -1.246265909637448 2.035737235935758 -0.5563910952964223
C -1.7989153999744818 -3.079546167034795 0.5592870031501351
O -1.356527497609146 2.8579501047577898 -1.721023363871342
C -2.4240661660317913 2.3689186963788553 0.2803340906527178
H -1.2760842291841608 0.5982086383340666 -2.040955700472321
H -0.7402483006010688 -1.2599166084268343 -0.9396421688951024
H -2.352987239908065 0.0837906959529106 1.312733385951296
H -1.2594093929838044 -1.8445068175228898 2.151105959682532
H 0.49253692347055217 -1.3824602854505685 0.9953073239835656
H 0.49416514558687435 0.45166475176508664 1.2857359222763831
H 1.6523143261164646 -1.1212377341974833 -1.0533765972130245
H 1.4956008994995722 0.6940532314542668 -0.911895019005548
H 3.029310993137733 -1.124769221479462 1.0521754337765958
H 2.942391717094271 0.6848396229319745 1.0920967281886595
H 4.1399100216383715 -1.0444601288392008 -1.1188624898066943
H 5.0114454182858665 -0.15733644281674034 0.12827229960558423
H 3.2293193000426355 1.6152222950582793 -1.1347734519428412
H 4.9032810039664865 1.6469432238260573 -1.0494958652657773
H -2.727929366268254 -1.4072063373433121 -1.0787373604885084
H -0.32181259522805294 2.476061394779742 -0.05758558834735235
H -1.6664101580940418 -3.984540431960218 1.2177557681590665
H -0.9512775042459526 -3.0943951850762392 -0.1349632643552961
H -2.75501348283984 -3.245153717720959 0.010318829336943985
H -2.2653197912547247 2.6017350977598164 -2.077660909311109
H -2.7096287916497412 3.451540536610516 0.04674953217160169
H -2.237067862999262 2.411516866751634 1.3739464765575276
H -3.3227669144727026 1.8063641045361645 0.01080923082281