37

 N   -1.636101635560   -0.382421951202   -1.260904872617
 C   -0.692079561878   -0.156364477707   -0.173608130562
 C   -1.142336622470    1.045175340895    0.673284240786
 N   -1.122166176932    2.260542985510   -0.094818233476
 C    0.720440362128   -0.062946505831   -0.779218855938
 C    1.904425997073   -0.012304154398    0.191760469195
 C    3.239518688162   -0.139353603694   -0.545771084576
 C    4.462044043038   -0.112990277583    0.369410351524
 N    4.483746641944   -1.266525702444    1.258652374486
 O   -0.355752596093    1.084971793036    1.839507183078
 C   -2.578314521682   -1.457609324584   -1.183843720303
 C   -1.725770691050    3.415102125745    0.539691213034
 O   -1.830378260585   -2.646637959897   -1.183573904898
 C   -3.541071049065   -1.444492086913    0.008656364717
 H   -2.042244022669    0.467800455881   -1.589626432191
 H   -0.709034086364   -1.017601846752    0.481391721522
 H   -2.176990140322    0.878755273514    0.957162913886
 H   -0.183626707062    2.472422469035   -0.369722090249
 H    0.811937619452   -0.945762964997   -1.402694726284
 H    0.760110130821    0.780087311050   -1.467428015701
 H    1.819676494159   -0.810712054870    0.920221499061
 H    1.898312918133    0.911741877457    0.759072800896
 H    3.337103515673    0.669612132885   -1.268372205991
 H    3.253026921557   -1.062078202687   -1.125361449423
 H    5.362235939965   -0.036614125671   -0.245137657828
 H    4.430113525112    0.779415445503    0.987571183505
 H    5.253992918828   -1.208940346879    1.896421017651
 H    4.603954477432   -2.111032605877    0.731923764280
 H   -0.753855299527    1.657775484793    2.479302469836
 H   -3.171392485224   -1.398797341008   -2.093976840086
 H   -2.766021439595    3.203436803182    0.764798149460
 H   -1.235427722420    3.727491201047    1.463175121644
 H   -1.703096235420    4.254650318789   -0.144641277370
 H   -2.398135618772   -3.380661641320   -0.996300025656
 H   -3.006009158524   -1.521400887098    0.948798791277
 H   -4.130078240921   -0.532825046913    0.013920462652
 H   -4.235488655702   -2.280224347427   -0.050052291739
