37
lys_c32
N -1.4728694178039339 -0.8692711095622075 -0.3720448280727681
C -0.7497650451583189 0.025979007452724485 0.4281384748611684
C -0.6694097440161173 1.4489452641634055 -0.03735043531270783
N -1.9403659389500807 2.1328659472428946 -0.0907301008743137
C 0.6856089170691729 -0.4139513371271628 0.7478522419111553
C 1.4650551922743964 -0.6305386204123999 -0.5128042915667739
C 2.866752467397579 -1.0542715242812186 -0.18008943058416282
C 3.587551916648235 0.03345008990904242 0.590748571588648
N 4.953833028210717 -0.4223381642684429 0.8705454937523442
O 0.08335405972154242 2.126476609156096 0.9594692905271093
C -2.359487044798918 -1.7064230665940996 0.39300675355808984
C -1.7682875197809247 3.561587182980582 0.2199421945481407
O -3.0958463819233737 -1.0299217291579938 1.3232498825260264
C -3.240439720266326 -2.4894344481032467 -0.5882629649909101
H -0.9137002094037227 -1.4762615164673 -0.9854952751487802
H -1.2160439512116235 0.08635773614687212 1.4673156531586444
H -0.10047235802210772 1.5354226540874898 -1.0073769261192558
H -2.3486025343747716 2.0650352660002547 -1.0599897602687316
H 1.1198921840421532 0.46577508503380644 1.2779607230626746
H 0.7022944129889997 -1.2725453855667008 1.4301035835834381
H 1.4748556154847878 0.29206566406916595 -1.1088700198161703
H 1.051587198628814 -1.437143635541936 -1.141889242573956
H 3.4478163929675807 -1.345069308433375 -1.0690024495421195
H 2.869062481046626 -1.9588623966495364 0.4974935226400137
H 3.664169843645931 0.946244384948398 -0.04085245305122273
H 3.067614910596494 0.31295895506022986 1.5079966288465185
H 5.03806237359751 -1.4479325054715588 0.676462053879796
H 5.623242760964047 0.10087048595082905 0.2600362340280447
H -0.47833902420921104 1.9745060539781443 1.7958498527238191
H -1.786627998360116 -2.5164709854539553 0.9293736979613454
H -2.4513169620096793 3.786634372608949 1.0502329145538953
H -0.7172542450685155 3.8097907506655546 0.46775749425779123
H -2.0167137889131417 4.194160899436997 -0.6584485430511359
H -4.040969432454932 -0.9250914399996908 1.034987959475558
H -2.5827246149929177 -3.1085360918747997 -1.2090236621926689
H -3.99860747117333 -3.0565673714512833 -0.026542293300600303
H -3.7529103523925857 -1.738495772474506 -1.2260730445905854