37
lys_c29
N -1.8671133297160154 -0.5703351423044167 -0.9339700464542899
C -0.8568595030125413 -0.24897201875597144 0.0636141681427859
C -1.2383672067813456 1.1085060550413928 0.6545500262434504
N -1.2259957026159312 2.1245237254338734 -0.39295419720998814
C 0.4831101207490073 -0.27156801111576373 -0.5570109313101569
C 1.672679941910363 -0.013254385004345661 0.3200990931100694
C 2.937580581025665 -0.0687808765065265 -0.5807793805766702
C 4.179708702449897 0.10368586208776272 0.21990313239344256
N 4.298625927605026 -1.014123620326836 1.1779598769624315
O -0.3533504451373013 1.451993602252117 1.6345056692181115
C -2.419096792907016 -1.8378464950705906 -0.8504816475612929
C -1.8959695429871737 3.299993547130241 0.12091488496055582
O -1.4426993060147528 -2.8614518494624908 -0.9462053880040049
C -3.201527697321663 -2.1284356913531144 0.40711136484657395
H -2.3184543644371707 0.20219693800584532 -1.3994630135672026
H -0.9415882026327971 -0.9866185643926683 0.8542557102055417
H -2.2826932710032515 1.049112399839342 1.030564324362181
H -0.2626586123120686 2.4140185295421386 -0.6469472525222592
H 0.6689740768526435 -1.2292167676512793 -1.1382301850939314
H 0.5770904364829392 0.5011821980317879 -1.3956420111115255
H 1.7893338011003594 -0.678850937318736 1.168127153723143
H 1.6604274747318721 1.0290522142361584 0.6817705647992073
H 2.7743829491063874 0.6995515475855026 -1.358584221494048
H 2.875678384756404 -1.0675765008734115 -1.0741798783416014
H 5.048883364420754 0.16910532988359148 -0.4284414893824748
H 4.061457415218353 1.0598291263768262 0.8048527456448764
H 5.312272630214026 -1.3043599149564622 1.2192609883894572
H 3.687079788017834 -1.8032736038239188 0.881939725186057
H -0.40357590392824 2.4180619775727727 1.8793960254570747
H -3.0581175700696708 -2.0069915851185987 -1.7720016395166767
H -2.715719202769389 3.0432578712940295 0.8200652684480918
H -1.1197135205207351 3.9305389103388837 0.6346221731222739
H -2.2539514254167847 3.9357756165575775 -0.7400130476859823
H -1.9109220051648106 -3.709542250558763 -0.6849863253474756
H -2.6801769041243455 -2.8275006515502894 1.097872486696206
H -3.44311023031598 -1.2282882334205265 0.9973123453705778
H -4.1356248554525115 -2.6833983516450752 0.12236880789298246