37
lys_c13
N -1.8796754765681547 -0.12915092366541772 0.9155558981482321
C -1.0447494786501998 0.7452736669793517 0.2428432809310304
C -1.4111932116179255 1.0135482215564506 -1.2130020237012793
N -0.6072643694894603 2.056998806574432 -1.794401973042801
C 0.4279223230177011 0.6644854364807777 0.4463799132178654
C 1.1266639713963245 -0.5881878244885719 0.11262608223678872
C 2.621301695096029 -0.33115123825314224 0.41497512509722917
C 3.436472386515009 -1.5571736652972281 0.1138248902602719
N 4.815417658567497 -1.2265491796573569 0.4280735173239024
O -1.3829220599342065 -0.10770321849597883 -1.9975201662377466
C -2.1217317860819955 -1.449441616446347 0.5994845296388723
C -0.7483610923247902 3.3445249098157497 -1.2074618499146077
O -2.9017982126186666 -1.6715448807291327 -0.5455980891933517
C -3.012508202995877 -2.0348240093347147 1.7242238345898322
H -2.5353437324723007 0.24635238559554443 1.628634546162246
H -1.285576925867332 1.7789947609370649 0.7002568314406057
H -2.44988104977419 1.482390672602737 -1.1882320763113274
H 0.33601967845719893 1.816690257482282 -2.0697265192374976
H 0.715363955787648 0.9488834089954805 1.5077665819723165
H 0.9090869624866402 1.4814811945034216 -0.1566523763813011
H 1.0770399070885606 -0.7894131847775114 -0.963526683572016
H 0.9019385622147328 -1.4609913567788513 0.7584535990561949
H 2.7265677243184063 -0.08860693004993142 1.4916601650398884
H 2.988969740102283 0.5041875063663682 -0.18928016590559701
H 3.35303127281479 -1.898039163720487 -0.9225776313818164
H 3.1552407040586123 -2.4024309882276107 0.804817093757549
H 4.982711449112591 -0.20259550826307057 0.451111257967067
H 5.506253554843324 -1.6783190074938892 -0.17953892965508994
H -0.6460590949773711 -0.1357510136906938 -2.654596165853064
H -1.3061438109926495 -2.1711969195044745 0.5271327373906062
H 0.054206405944755676 3.659588431252036 -0.5175249453623488
H -0.6956372445402363 4.0975666305154075 -2.050203834494803
H -1.7526142035223922 3.4912160946020996 -0.7656315608137737
H -3.6947698627051926 -1.0848894836539944 -0.4417191461930766
H -3.5016412758063864 -2.960492681013809 1.4073694892987325
H -3.7511840463531536 -1.2240203797283113 1.9319375606192555
H -2.4051528145300787 -2.13970921098875 2.6500672031032977