37
lys_c35
N -1.1317197237126433 1.0828675886510886 -0.24373940501834457
C -0.3660809432020263 -0.10539318274804228 -0.4741840322557804
C -1.1553932083868381 -1.3411299783356023 -0.14713988776872972
N -1.6263099860102823 -1.3507459626120795 1.2168991007183105
C 0.9191613494171699 -0.06372992950169663 0.3424148811495219
C 1.7560711340833102 1.137782333989751 -0.051883442269848604
C 3.0107411449365995 1.1605717899499495 0.7806813048614465
C 3.8492808300109083 -0.06167603505585703 0.6129740592723649
N 4.2854919561501745 -0.25297488182881683 -0.7516163831334702
O -0.3938758000023899 -2.4953011446059543 -0.36388048335508844
C -2.297188895017841 1.2117977857672202 -1.0659188004776075
C -2.296094229184185 -2.5779994953483434 1.5291381978573646
O -3.3822523545118894 0.4705288214207098 -0.579482939923688
C -2.801840701086432 2.6686547457636474 -1.0664237871695843
H -1.3474935355756639 1.2924309854893574 0.7433872456297465
H -0.0940132969743752 -0.18543302034941483 -1.559197103271363
H -2.050075617542666 -1.3699901052252899 -0.8091472507130062
H -0.9070184112709926 -1.1112946341290941 1.9180146937784752
H 1.4935933377810984 -0.9911164586431319 0.18288107982281107
H 0.66085965133069 0.07337346609909814 1.4126769109079755
H 1.1889408553466523 2.0633018115904354 0.1645744734049505
H 1.9729003996857943 1.128419921096243 -1.131941210354377
H 3.596422351212113 2.0563759867962252 0.5688560179415699
H 2.684969557810692 1.2155786619481341 1.8438483151405
H 3.3741514506354284 -0.9796696019607356 0.9647784223205661
H 4.7621405019033825 0.08717907876458736 1.2484150494778823
H 5.251261034175543 -0.6958766879743852 -0.7579967160919335
H 3.5954898867502627 -0.8061164134713159 -1.2864833404124094
H -0.3433422860577823 -2.6109823084054464 -1.3584407139418384
H -2.046243684449841 0.9456776983870215 -2.131480014240274
H -1.5648253310788907 -3.4268077931495564 1.4537218378442711
H -3.1145964958378642 -2.743276313623112 0.8046930949347214
H -2.728641337723993 -2.5105340729587673 2.5578158525171037
H -3.9443916902918987 0.1275909242528332 -1.3269269361563063
H -1.941582387871098 3.3660105243535643 -0.9614400855627048
H -3.536095072846012 2.7985629712048827 -0.24450512821636172
H -3.332400452594403 2.793342924401918 -2.0339428772470236