37
lys_c12
N -1.1283458888264948 -0.7896348208828732 -0.5592057768734142
C -0.7448299948836116 0.14542361163062312 0.48227414926482515
C -1.829787614427353 1.0439928818010646 0.9525849814042988
N -2.5289745572972966 1.8084176399317224 -0.018595122034705227
C 0.5078307449547443 0.8290239019752694 0.05560138003242936
C 1.604117376275684 -0.25436139502736665 -0.11624335455066064
C 2.8347940886634784 0.5215090113822277 -0.5598030822553715
C 4.0268640072943365 -0.36789276981052627 -0.7806470237056303
N 3.775880619874421 -1.3708554080438096 -1.8010671906393618
O -1.2969075390552045 1.8910627928764299 1.946746447436443
C -2.146798347954339 -1.7188730207441631 -0.16478118079069126
C -1.7308775944024768 2.789808493504249 -0.6775260489802741
O -2.3256011042762306 -2.5758961394444637 -1.2798884021192327
C -1.6993637351117852 -2.601515796313597 0.979172511945708
H -1.422670854468938 -0.3023928291862278 -1.4220205134674846
H -0.4881469546974566 -0.4972171573862862 1.4075103779389262
H -2.5850026326150806 0.37141512538088195 1.4643375865463204
H -3.402492812445717 2.2350552820003515 0.33275599151174035
H 0.4309778718962162 1.3343534715036103 -0.9371432725982793
H 0.8513754845684062 1.5860067595146494 0.7792867400307285
H 1.7952106261821084 -0.751165768626337 0.8389625755726614
H 1.3015364683874076 -0.9716829390404668 -0.886184509650081
H 2.5815591224917602 1.060351479944421 -1.5018286404163157
H 3.079317075325248 1.2584262791459924 0.22130296328113938
H 4.299345346751233 -0.8508264453651697 0.1613020449823418
H 4.858544594794656 0.26826921964162814 -1.1276765468552412
H 4.734271259082512 -1.703356910558816 -2.111568068891559
H 3.2975276499931523 -0.9237163660483481 -2.6151549136304575
H -1.0644196014060379 1.295805465371229 2.7188123538671833
H -3.1026247816216532 -1.2673509263563834 0.10324067267228393
H -1.429503326596906 2.5126633709607624 -1.6922427766099388
H -2.322154928380464 3.757763568275835 -0.7385812972421169
H -0.8431878715684803 3.0544769943053853 -0.05268161057715237
H -3.0820374088538376 -2.292429911081311 -1.835292067667649
H -1.759269314233562 -2.054885478488101 1.9401937744362918
H -0.6765914167574257 -2.9847035008791902 0.8570286068818264
H -2.369564056654961 -3.485067765862847 1.0093748878602176