37

 N   -0.445711320102    0.173934101415   -1.038249217153
 C   -0.420444466657   -0.867823044466   -0.017216284039
 C   -1.795677162806   -1.316631680184    0.509407743131
 N   -2.702938999721   -1.648577144353   -0.574062828654
 C    0.546986105303   -0.589557497677    1.146140822511
 C    2.040154738991   -0.580587457127    0.786897355404
 C    2.549429170066    0.681759748413    0.086186735849
 C    4.070910381308    0.720191197182   -0.045227986157
 N    4.721165285574    0.792520799200    1.258341486892
 O   -2.359319377267   -0.288552566032    1.285209587266
 C   -1.262825891670    1.371323138296   -0.874669178825
 C   -2.626943937969   -3.016705375630   -1.045212802462
 O   -0.990661417972    2.028733631113    0.322895801950
 C   -0.947771519554    2.330722627634   -2.007770309013
 H   -0.719984490186   -0.248807128785   -1.902232402480
 H   -0.024482373202   -1.741143403959   -0.530178392599
 H   -1.634672568238   -2.185563207728    1.152122994876
 H   -3.637772138911   -1.422011862557   -0.301383479130
 H    0.290296717687    0.337555932379    1.638904105781
 H    0.394589156443   -1.378844629872    1.881327885188
 H    2.603936654152   -0.705957530383    1.704940677448
 H    2.270214226761   -1.450277301019    0.171024860203
 H    2.217682191666    1.560154961275    0.637519608457
 H    2.107248365987    0.763873386691   -0.897752055389
 H    4.346281418288    1.551677754792   -0.697843679434
 H    4.416817638421   -0.186086767827   -0.535128679103
 H    4.494825611294    1.659228866438    1.708954924659
 H    5.717839922930    0.770164789925    1.158573528408
 H   -2.960313631636   -0.648235495350    1.922416788787
 H   -2.320906351154    1.122233231663   -0.901597641968
 H   -3.388281216377   -3.176040737913   -1.798873469615
 H   -1.666367485324   -3.202234731865   -1.511506405146
 H   -2.762609558612   -3.761794814196   -0.257497066370
 H   -1.464240809934    1.580617224385    1.011593203273
 H   -1.571968430493    3.213703281954   -1.928136825637
 H   -1.127921193077    1.868233664521   -2.973880623565
 H    0.092205848157    2.628886913038   -1.953576098638
