37
lys_c18
N 1.471248998088599 1.544091302500854 -0.9008655234013765
C 1.0137010077639155 0.3391007303322878 -0.1931752751765825
C 1.4638386529329588 -0.828314972157311 -1.0708467906042285
N 1.3430724061943125 -2.0864599979547065 -0.4035147321358898
C -0.4875720400611996 0.37367023830039575 -0.28610266780371013
C -1.1933869991173913 -0.7732498074747843 0.3751032986944989
C -2.687254475826838 -0.5040286965330609 0.1377029804446069
C -3.543531514820508 -1.579129140096281 0.750136305872341
N -4.944879033193401 -1.2494092048051906 0.47389912011356183
O 0.8850302583102848 -0.7802258734982589 -2.3154687992267786
C 1.42694721850638 2.695467304238873 -0.037320917704268375
C 2.2165228156376227 -2.1393461096132076 0.7502620248166579
O 1.9280776592574849 3.8047334148644096 -0.7322532388755136
C 2.3859644706718695 2.4474813819270906 1.1103960715700745
H 0.856521636979671 1.6590619852400685 -1.7194907139133975
H 1.4135676577351777 0.29765162649418947 0.8077746723332297
H 2.577077215095613 -0.6690541844384448 -1.253008772050444
H 1.4857981439667443 -2.8811329334414917 -1.0524133562647384
H -0.8494213098558991 1.2989650316658887 0.25046999529177866
H -0.8537595690150261 0.46176827100306006 -1.3086060988401038
H -0.9794115037847393 -0.818923398966279 1.4532212629196968
H -0.9520428016427692 -1.7705250527280039 -0.06142320275210279
H -2.9403246456171557 0.46108203646111456 0.6097181693773138
H -2.8369126104305056 -0.41410981147147796 -0.9403622501897877
H -3.357896666056529 -2.5704252273831307 0.29721774409145
H -3.4001930251759367 -1.6131362796976407 1.8348597360228551
H -5.011371844756152 -1.201769448943328 -0.5882228624002896
H -5.0465135104532495 -0.24541482384890687 0.7853088489847965
H 1.5268022377544197 -1.06918687011095 -3.0099029976964955
H 0.4222773494469634 2.9313270703457115 0.30675830116501474
H 2.4084980721873928 -3.2200954486378843 1.0208339255781445
H 3.2146497905682923 -1.724850622881927 0.4558750787462838
H 1.795965377543321 -1.55497120912163 1.5699124252674326
H 1.2931448485141945 4.184669806794007 -1.3689274015153379
H 3.274329064658532 1.8689144871841918 0.7905107825128007
H 1.9027829079923064 1.9046744530139605 1.9402050686281902
H 2.778653760001222 3.4210999734376535 1.52173978812031