37
lys_c4
N -0.7212120446746975 0.29949641902521057 -0.9324851469700374
C -0.6972626648043762 -0.7323070659657652 -0.0036276022629810377
C -2.014714361416614 -1.1110038766581147 0.6081119436375892
N -2.986978541995014 -1.617096307069176 -0.3133182683319676
C 0.34125737997278044 -0.598446299378374 1.061306796855734
C 1.7600392965415335 -0.5638685270425282 0.5911334179070212
C 2.0998354789258826 0.5707587542832145 -0.3260598268742847
C 3.593040622119529 0.4623073493807017 -0.70933218689733
N 4.341721607182095 0.5360103660713137 0.5213015840585545
O -2.608785278598905 -0.055613942910935285 1.2958344654519096
C -1.1431568639577885 1.5925847313661006 -0.5981557230793203
C -2.5091477145521495 -2.844516515408426 -0.911834866115106
O -0.6712465696831122 2.160300285354409 0.5505146578050143
C -0.7861213296119093 2.521342554585869 -1.7566089036106491
H -0.7673847435370936 0.041039011255107664 -1.9335380515438652
H -0.39792993820458245 -1.6795831828541476 -0.5790485340088224
H -1.805379836425064 -1.9004583485435682 1.3606736456983968
H -3.8862679795323447 -1.8271501134888197 0.17391315931091156
H 0.19824993582743564 0.3392678145201057 1.677482175597319
H 0.24176494930299786 -1.421273693878051 1.8270717065707878
H 2.4862227953268383 -0.5616058674068802 1.4422561051676475
H 1.921795396430301 -1.501596888433617 -0.024524139014976888
H 1.9559677219624336 1.565306962036034 0.18603795995210454
H 1.5483510537423182 0.5786765462899984 -1.2782798762554046
H 3.8434311043223963 1.294268350902422 -1.38438964003077
H 3.717428802052402 -0.5085541919473578 -1.2274416470871352
H 3.9262490524428224 1.1823650332004079 1.206706612153319
H 5.311199834381722 0.8256494077141536 0.27477450825149435
H -3.5602652437593996 -0.23327846689472978 1.4670188487404863
H -2.272400538461023 1.5730932849153816 -0.5310469700393592
H -3.3373442523792862 -3.4650432459116427 -1.313118311217361
H -1.7915880432417393 -2.609277212476646 -1.707242192366605
H -1.9583378077661926 -3.4026450062918405 -0.10396267604019326
H -1.3567889611959998 2.779532386157428 0.900053685973453
H -1.6431480377840901 3.1568455090323595 -2.052984013226605
H -0.40541582040380825 1.9396102759229163 -2.611748516573293
H 0.034321541452209815 3.2148637105474083 -1.4685032770494104