48
trp_c5
N -2.321679102903366 1.399550148067199 0.5534293875281573
C -1.521138887104554 0.36023777013094527 -0.1534166342286848
C -2.089082046261501 -0.9695292285968666 0.04134140579664204
O -1.5221417215145034 -2.0154535973635883 -0.6445536233210565
N -3.523317324174327 -1.0667134555842246 -0.18734756621850748
C -0.10267888761299485 0.6630378742195434 0.08176251618804878
C 0.9269510744342051 -0.15276787310578377 -0.5276607223798785
C 1.1440337833566536 -1.5757139146355177 -0.2191718522146775
N 2.639314876988849 -1.7174418120702333 -0.06868942397344484
C 3.10079145607749 -0.7439707239774764 -1.0048962602711855
C 2.326646377592225 0.4843873596015476 -0.49341260921625046
C 2.6896467357374982 0.8548697274935461 0.8793784679301192
C 4.176968454347722 0.9238168703783837 1.1366228613703446
C 4.992895500816105 -0.06883469464549086 0.38756487187183486
C 4.539065312967062 -0.40931165856804796 -0.9821108243110873
C -3.5530321761696952 1.694861707566375 -0.1062424917953302
O -3.3349482475445704 2.9257485340117997 -0.8450020455657106
C -4.672277856520788 2.051031374367479 0.8402729038764292
C -3.8348847657974683 -2.503495576318896 -0.28287677976366726
H -2.5144516110979835 1.021081842608312 1.5354345705470822
H -1.7867931592327164 0.6454663885367303 -1.259041309229827
H -2.007398621436012 -1.1978224406839533 1.1754011265500077
H -1.5405413443621803 -2.8311435503048856 -0.05394126811152647
H -4.051371692737338 -0.7526170232438758 0.6673297938967894
H 0.022229485004185614 1.7632942812713452 -0.24840477186886262
H 0.05872572823158694 0.7481138120943883 1.2267991331565387
H 0.6827529961711858 -0.18279329606534608 -1.6947224949578463
H 0.9748470017455685 -2.294657658694243 -1.0736312509380619
H 0.727934889808217 -1.9181769324401698 0.7365415249932736
H 2.82048978869229 -1.431370376964478 0.9064144951834298
H 2.701298058881987 -0.9630486489447858 -2.017508341155976
H 2.380230862098379 1.332188589790433 -1.2076120088468378
H 2.1668031211639325 0.28919034262883075 1.671689599385704
H 2.334159861885118 1.9197570124111107 1.0351829785899915
H 4.562478638761866 1.968617129246446 0.9341213726030296
H 4.3313748525570075 0.7610976449937168 2.220446246066363
H 5.208922485436966 -1.0185884203980156 0.952652301844441
H 6.020284434534441 0.39414750290809997 0.26640965252626614
H 5.184432011723388 -1.2592309846367125 -1.3352480361260433
H 4.713631419976964 0.4727244962847061 -1.6353724606196502
H -3.869974792337834 1.0081424066665645 -0.899334480262872
H -2.6000127622493143 3.3669159870699676 -0.3893855367787781
H -4.822191697397228 1.2933147438237025 1.6064227216831664
H -5.620508545758518 2.2664932372366136 0.27426635993646503
H -4.416340989119354 3.048627545430953 1.3124432871553398
H -3.266762178829689 -2.974553316116144 -1.1085146154149874
H -3.5505332312088336 -2.981995014946655 0.6662454317959642
H -4.904847567619624 -2.627484130533113 -0.5213884924837624