48
trp_c8
N -2.1340056751361147 -0.968256259340667 -0.8943983529678756
C -1.603831023434015 -0.5136026079629854 0.38746744979094566
C -2.28323195774152 0.7154749413127965 0.8721196156704392
O -1.7209980570444872 1.147802241145204 2.0598507738577436
N -2.514733506982685 1.7448356685972588 -0.0638260354569149
C -0.15682284910055722 -0.6857150915561308 0.5352766835343491
C 0.816321452162888 -0.038921682722720646 -0.3399698188528383
C 0.9010765091963819 1.4455690015956413 -0.33484123824762335
N 1.7928112288648896 1.736251416158353 0.7780307755994669
C 2.6379459062833543 0.6158210087694244 0.962034673722611
C 2.219778106329395 -0.4686612542158691 0.03331280797465255
C 3.1059560015263727 -0.5098068413781491 -1.2036134660180606
C 4.482235396747224 -0.9497328615153668 -0.7432011125060576
C 4.849727751400762 -0.3639619131105439 0.5959784033558835
C 4.103029807601725 0.9480116282854056 0.7222898220860008
C -3.5114176466622857 -1.3194345347146732 -0.8258709622548533
O -3.8757508689513216 -1.7630993391905638 -2.122267609668615
C -3.80014072611592 -2.4652331142750343 0.11780142954291732
C -3.7273943123504 2.461067559018175 0.2412976230915709
H -1.9540636119181911 -0.3505087172837331 -1.6799224999716391
H -2.0471376194370734 -1.3292303795918634 1.0862693480762218
H -3.351920316125678 0.38800570835534964 1.2017724023218086
H -2.3599355065106 1.535315796616114 2.696683323392683
H -2.4576412718045026 1.499974805949385 -1.0624597288844029
H 0.1112337557626451 -0.40273804221878146 1.609063908633223
H 0.06826502473706399 -1.8165432192750497 0.57459848517653
H 0.6545828411298319 -0.37605026191740853 -1.4413264955077485
H 0.0018984100093739436 2.0206331043417807 -0.19142367112450936
H 1.4699349564037993 1.7837174549132406 -1.2498595260737801
H 2.358573409866388 2.6001051059300946 0.5851761879908964
H 2.593924350354648 0.2878690214232628 2.0388544230884595
H 2.2352157406385174 -1.468519373276444 0.48424891173375934
H 3.099864054932427 0.4619267479306187 -1.7332843082813618
H 2.6960312951632646 -1.2879992091715662 -1.8794164320827924
H 5.265657609785262 -0.6780969318102449 -1.4918140259513772
H 4.459128731931531 -2.0522454080637895 -0.6434297820329868
H 4.5628961367196865 -0.9937697921611023 1.453735360048619
H 5.923576099502956 -0.16248500105624733 0.6923721755854275
H 4.172613354247345 1.5646333857619854 -0.19201218990403696
H 4.479858710551435 1.527298019503109 1.594766114372409
H -4.206043626349474 -0.5019675594772216 -0.5789357115998746
H -3.4359657780910986 -2.638248441814774 -2.3256822988739407
H -2.952417056548857 -3.184351351712658 0.13971781189505517
H -4.088635525401875 -2.111952741082315 1.1387222981267449
H -4.6763658565039155 -3.0152789801431714 -0.27934699681615266
H -3.6246440222260374 3.553582481776035 0.014614443866747581
H -4.563142638923253 2.014652136098755 -0.34930343886629084
H -4.015897188489426 2.3638636765569867 1.3063863975540966