48
trp_c18
N -1.8427481822954204 -0.7145683565400006 0.08749141315538955
C -1.322230095706007 0.4501269539184427 -0.5220250936059663
C -2.386292866032172 1.0884840435042544 -1.3846607747779516
O -2.856240341870101 0.21809243607927936 -2.367340982078384
N -3.481182921837478 1.668838659129942 -0.669484391822491
C -0.20792833144697445 0.08140502573938213 -1.4371422825899152
C 0.9761651712597976 -0.5812670788623795 -0.9113055667494554
C 0.9093165579805864 -1.8780501781527315 -0.24057196800765443
N 1.5047470727845722 -1.7168353429394505 1.0976739935217374
C 2.529748813580088 -0.7272445600067735 0.8553019035782062
C 1.7595123827918462 0.310809648205656 0.07080274584331116
C 2.699072428322318 1.219334642266287 -0.654366408571167
C 4.115602875597536 1.1848450124245147 -0.12129843488008492
C 4.705603290841314 -0.19154249974920146 -0.14841671627358696
C 3.702473583578293 -1.2743167054784226 0.1023159762663012
C -2.8833777426268967 -0.633868302562657 1.0339116520800562
O -2.5559558657622476 -0.012935831671655433 2.236595249706842
C -3.2637668212535362 -2.109246514734832 1.346973353612144
C -3.1083510283230695 2.758877257648239 0.17727466864395117
H -2.080333243908511 -1.4540585495226983 -0.6471681891321589
H -1.048233975965856 1.251189401464601 0.1997143300300091
H -1.9192585010094543 1.9563703624897115 -1.9535369608518798
H -3.7838191196475326 -0.07777679463219973 -2.1946749440574096
H -4.245349788061453 1.9706765742319252 -1.301998205323466
H 0.11741182731837943 1.0337414412795642 -1.9494324927218114
H -0.6706173595592209 -0.5154687983783937 -2.2738878401905493
H 1.7168502724515744 -0.6870786237973548 -1.7673551261155158
H 1.5847745611266078 -2.6538173325613688 -0.7206815509886108
H -0.02482355607675706 -2.3799752376079866 -0.08529259350465086
H 0.8349478424911267 -1.3137644205305483 1.7727892815241288
H 2.9025179642376933 -0.3404561298114615 1.825496210151959
H 1.0764233456791583 0.8369893582917733 0.7596763809226031
H 2.7169967828157557 0.9232355893190325 -1.742911516302771
H 2.3318765050060493 2.264997025068243 -0.5251651968387606
H 4.115646321513715 1.5771816196264106 0.9143146265777057
H 4.726417425247432 1.8172193385637716 -0.8046378237334928
H 5.51762155719181 -0.21376396072262363 0.6235507430395091
H 5.212533445928415 -0.3785270551673326 -1.1130433119428906
H 4.1777477835038495 -2.0516931878526705 0.7338403543101929
H 3.4350308350118426 -1.7789168198475993 -0.8455352370849166
H -3.785675724814019 -0.18030101027205786 0.603710970859435
H -2.8929992265285387 -0.5601804934584796 2.999101308491004
H -3.2456255768448874 -2.6928141667215004 0.3794375523975352
H -4.278732080155422 -2.182675080326584 1.7411377801223138
H -2.4700657192936752 -2.5465865722385272 1.9768573644804968
H -2.0433832179646694 3.034882837548111 -0.0010099696551425334
H -3.7075802817525325 3.6604249583595156 -0.06844501941658
H -3.2644670775230864 2.540007418988449 1.2669685162123374