48
trp_c26
N -1.8176042547072753 1.0031189698649592 0.14560547421365533
C -1.4474604491021796 -0.2890394053512844 -0.17667669820603035
C -2.507334060221945 -1.2278540695809081 -0.610303258209848
O -3.1285660319369044 -0.8636924983132589 -1.8284998905427277
N -3.55120647088482 -1.3399875759049795 0.36593191685114673
C -0.4267449723826883 -0.9437334501597794 0.7098913410824556
C 0.9213715598132057 -0.37880152153933533 0.8114880400801775
C 0.9165349138490234 1.0374914225523635 1.3286293538886407
N 2.3635601447012626 1.3294274761918377 1.1728124306115704
C 2.474808686590093 1.015981053415642 -0.25807110416153184
C 1.773038195478321 -0.33436029986231003 -0.3974189805198203
C 2.839142720868812 -1.3931452442556962 -0.48589268121889445
C 3.941167560889401 -1.234759694802476 0.5197902477322767
C 4.738645767703209 -0.007558222556285903 0.1388070503991815
C 3.9204501765077975 0.983388939287323 -0.6172519057256441
C -2.3525312773673157 1.9801734489151297 -0.6570777671561889
O -1.5328009583855613 2.211859648054213 -1.806371864279895
C -3.7498799978467066 1.794481748493608 -1.1553159895031047
C -3.241056090313388 -1.8829536702901546 1.6294290460636764
H -2.3415242584598555 1.062662054079736 1.101179728924831
H -0.8855178652587379 -0.11425136885586061 -1.219108240221555
H -2.064149930479546 -2.276362365879334 -0.7740879344114368
H -3.986271256986238 -1.2989220460936373 -1.921430232103281
H -4.438997500223643 -1.7342917810362275 -0.043186059058743766
H -0.3912866365164664 -2.018784680830362 0.469077131881119
H -0.8559676452620388 -0.8901736089876202 1.7480568390379523
H 1.478179101068994 -0.9692068689042539 1.582674669246465
H 0.3365554293598301 1.729838169366185 0.7204237982819502
H 0.6647964404770325 1.0492298135361768 2.411967514428038
H 2.552789947197245 2.3342354010907393 1.3313018516529627
H 1.9738226352745576 1.7945197983836232 -0.8368402576007601
H 1.2743992358167129 -0.3101483187630983 -1.372120669117484
H 2.426095214136955 -2.429381283974801 -0.5092539923357363
H 3.317718262720443 -1.2714631020673486 -1.4956898926056281
H 3.6079912350532135 -1.1598452503780998 1.568796613914017
H 4.591837758754767 -2.127935537906147 0.4378581037238199
H 5.118245950273398 0.4458933242124253 1.085994095809647
H 5.605236361017903 -0.33465431006294327 -0.4936836800216502
H 4.320413318680702 2.0009172348799784 -0.33889486178660894
H 4.077110862860803 0.9465910271134268 -1.7288656167156262
H -2.3339979063234026 2.982152549857398 -0.11788494481201668
H -1.9797311254176215 1.808026888428304 -2.6129318448982306
H -4.368950823713719 1.085158034162728 -0.5917169163319932
H -4.3307323860320635 2.784581031165401 -1.0695713160011533
H -3.8243109658092567 1.5856739841645084 -2.2433109003581744
H -3.1001644783587197 -1.0929807101345428 2.394833229872848
H -4.170950622789787 -2.4390708978079836 2.023570653426728
H -2.4061735143140575 -2.6020442329170184 1.6633383667806008