48
trp_c29
N -1.9699681285388693 1.2774563613249286 0.5914553133099479
C -1.81387353096131 -0.10530638209803267 0.33465895553440045
C -2.8178558662438977 -0.9799873672198467 1.049181509471018
O -4.1194182773293875 -0.676670584373155 0.6975580260237518
N -2.5754064571616175 -2.3740968203911708 0.842093213860374
C -0.3990716881714039 -0.507830331962518 0.6503148125467779
C 0.6554126247562437 0.16896156331817708 -0.12519853708970222
C 0.7311004980702891 1.6707880016055725 -0.0012442085929116184
N 2.1388632142909145 2.0376440059988674 -0.19778287570964917
C 2.812343238540392 0.8316410169605954 -0.5259626890666762
C 2.0598608598936825 -0.1934927710912964 0.34251810247954195
C 2.525668086369492 -1.5394473321975408 -0.08086207176638756
C 4.051427309676565 -1.6082482739229187 0.015801529392840824
C 4.618937573442683 -0.3484025447223743 0.6432563019319
C 4.278801608664746 0.8082386819993963 -0.29001233494002415
C -3.172662166286291 1.9074646875059376 0.1288824256170718
O -3.0293983222921983 3.2827622860492616 0.4665222683263529
C -3.3108295110025163 1.8954875019030533 -1.3774851034104811
C -2.6715801546047135 -2.8430319569655587 -0.49763156875612974
H -1.7343662453465436 1.552845032373717 1.575360400605012
H -1.947009143668393 -0.32331929102035306 -0.7622334882839004
H -2.720109207176873 -0.7892390820292094 2.1687779645933234
H -4.242930549671786 -0.808977952608962 -0.2615495039702062
H -3.1030565368682566 -2.9803736254737765 1.5010643458551336
H -0.24302054634163942 -0.3275815293951864 1.7329563478095331
H -0.27031813209135985 -1.612032203795252 0.513900612758768
H 0.6226877152083393 -0.07273892034574421 -1.2011777177532705
H 0.48968787348040643 2.046910905642519 1.004249896589034
H 0.13002059241223435 2.1628197326747194 -0.7811456366171095
H 2.2230226554519548 2.8081728900256944 -0.894858286088016
H 2.529078830114119 0.5573754442946991 -1.568984701160552
H 2.2161717072453793 0.023790624659074448 1.3990240942751995
H 2.2659794887152445 -1.7387952512838039 -1.1324579871143663
H 2.141753640970366 -2.318563101229597 0.6220845862968176
H 4.514667462054247 -1.6757232182269286 -0.9938491333325449
H 4.383378864288848 -2.494765256397481 0.5897767491133904
H 4.228730323652746 -0.12590085871964776 1.6325353681359824
H 5.725554121749021 -0.45979466109279343 0.5928813308646788
H 4.713974055299013 1.755949393092445 0.02324919995377604
H 4.773115081047818 0.5484798745509248 -1.271757037020486
H -4.100513777935087 1.6058477968013263 0.6111149949258218
H -2.498358206693365 3.3291993502557 1.3245765617661074
H -3.863085100469856 1.0089009392727584 -1.7341631113211629
H -2.300876393746419 1.9339126285508794 -1.8713843144294369
H -3.9295354528874027 2.7692953082562903 -1.7299158718754915
H -3.1394758820547484 -3.8663976980260943 -0.5723942453732692
H -1.6498409008115766 -2.989383808588215 -0.9263745116398991
H -3.207677247039449 -2.2238432039391522 -1.2104933444023271