48
trp_c15
N -1.8871447222504674 -0.8120074766630325 0.3896252344653256
C -1.239053702322701 0.41091143493488264 0.7030808458747284
C -1.9204036010929821 1.6582527860917922 0.19916273624543546
O -3.195757104345996 1.7965987304222313 0.72954697879872
N -2.0668700297312825 1.6477881040991609 -1.2482227295277353
C 0.24194927867689967 0.4229138490998022 0.44107860507138125
C 0.6795769273564592 0.19304201052243833 -0.9435937055050033
C 0.29038600111910284 -1.1324377284261742 -1.5526493249663862
N 1.1514944268113438 -2.0371613319086848 -0.8152058258353488
C 2.4489784603510767 -1.3438275036863798 -0.7751707519265874
C 2.198431925597918 0.07578005562151365 -1.1012002541522072
C 2.979492470807375 1.1185180222100617 -0.4434252346548416
C 4.014326654299669 0.7322121767457102 0.5378971214856196
C 4.351403843628493 -0.7150854108764942 0.6233177391804803
C 3.1966458073121022 -1.6459827966697425 0.4671524136329957
C -3.2023260504028976 -0.9243007247420267 0.9830984759705494
O -3.089571054889727 -0.6131814650507692 2.3353754627140977
C -3.5400429523070462 -2.4258835092185573 0.8745672364685205
C -2.7247277945123956 2.9114165332112214 -1.6000486816343622
H -1.321154402496908 -1.5738100838513807 0.8740197836783149
H -1.3103157448638676 0.49776639793202154 1.8367942007933689
H -1.3653771984965233 2.576247268980273 0.4514553887076738
H -3.146268284667881 2.2774032490861686 1.5820913493627433
H -2.6601213988135215 0.8565770605606754 -1.5857203105247368
H 0.6516834382693556 -0.42616796677986174 1.0667561374865202
H 0.6208219100709194 1.3280208213707274 0.9240182073116143
H 0.37161235958212363 1.0103217660320583 -1.6494735225485913
H 0.6891461440790105 -1.1391694292761076 -2.595546784904703
H -0.7523808525166016 -1.3837207174156256 -1.5484941664682432
H 0.8269645394156975 -2.2831465019931145 0.1254418963252213
H 3.0242395105974538 -1.8508985937384383 -1.6151874373586752
H 2.320055013932972 0.1430013136693799 -2.234749970353172
H 2.298134982765357 1.9156757664906143 -0.016479655996227627
H 3.5169731905099426 1.7205887052914024 -1.2441351611459581
H 4.971551837130861 1.2931771677922186 0.41023138345251325
H 3.6507614323266435 1.0439122802801009 1.5611881773998262
H 5.129698477966296 -1.000534538604597 -0.11955710012889754
H 4.816041975033293 -0.9386195846597065 1.6218021764396964
H 2.5888472245256047 -1.757070622827282 1.3899972648320926
H 3.642538564106737 -2.681124710820152 0.3463274722289435
H -3.983402289494901 -0.33027376575819856 0.46546361480897686
H -3.830736560788349 -0.06265726986789022 2.6454086396994008
H -4.3470280168492454 -2.6304431349500557 1.588212082234632
H -2.623446029282967 -2.9749743066953322 1.1314014734807636
H -3.7874413204534556 -2.6463146609441752 -0.1756786339594695
H -2.2547445035118443 3.760308073207863 -1.0637195292397787
H -2.623094878506298 3.0347296613440906 -2.692873876639078
H -3.8003479036746692 2.903630600427197 -1.2833794406802048