48
trp_c11
N -2.106669916348491 -0.9399859831305833 -0.8336784785109285
C -1.697591984034964 0.27808310730854047 -0.30128305052530097
C -2.6610585881751843 1.4382665727753368 -0.4432134596472079
O -2.952128478199096 1.7765599779620478 -1.7462555828027937
N -2.1628891991364485 2.578427406034301 0.33399841436656935
C -0.2637576045152556 0.6676843367853639 -0.6376363858155898
C 0.6724415191021381 -0.26870216772803723 -0.02156813941783273
C 0.6430508692854755 -1.7203262473412468 -0.38432237519588364
N 1.9405792989310016 -2.2503829228238335 0.11149851751431003
C 2.6988815878549137 -1.125409034612897 0.5714997495781654
C 2.1470150612131005 -0.0091328013641286 -0.33752834808664733
C 2.613102027962196 1.3010111482001971 0.1638343661584062
C 4.12124346276987 1.3258283729052736 0.10979457729128557
C 4.753595081819886 0.15200745227110368 0.7812097585113824
C 4.160330882153543 -1.173988587893431 0.38282170610881755
C -3.238864483751534 -1.5400991688094603 -0.21661648440491693
O -4.413847040714005 -1.4421694091080255 -0.9428659320279696
C -2.974163996982164 -2.9718652314558587 0.22605903521170229
C -3.299539721832084 3.244643055399956 0.9877830468246339
H -1.6221724292317004 -1.3918172672915912 -1.5723843017738515
H -1.7029777671247703 0.13909348477855976 0.872582086519656
H -3.586580331995797 1.1131256759213597 0.0997523202443407
H -2.4360499094175396 2.5774218587018645 -2.003832639126521
H -1.5745612825760391 2.139537397197147 1.113881003274458
H -0.12486513700853764 1.679912543391652 -0.19655083027599105
H -0.17420031139987724 0.6981255331263377 -1.7579988685820604
H 0.6268768709858659 -0.147638915104683 1.1129489035942879
H 0.7150447274268326 -1.8328838003159111 -1.4722588678721242
H -0.18911477827660395 -2.27218191541239 0.09903880666639453
H 2.4033268257410976 -2.8597520122517066 -0.5620626910452389
H 2.450448044973749 -0.8296495559896081 1.6167833177946564
H 2.3955299358637636 -0.25887720664898645 -1.357913326468853
H 2.234671683305525 2.110351685111277 -0.5066597638096658
H 2.2749576974120584 1.4325092899993102 1.212156010490543
H 4.4149881335986905 1.2934445010108293 -0.9612457355195185
H 4.435324942391153 2.255705635959429 0.6205897738356068
H 5.822923033827122 0.1326376308497879 0.4897524854744386
H 4.692268615577074 0.26260529271058686 1.8884319999011363
H 4.593004103980244 -1.9233611924822864 1.106271294988996
H 4.459904150066331 -1.5033517943328787 -0.6214136919261922
H -3.47690379578832 -0.968646900824703 0.7609642457245165
H -5.199805986996161 -1.3831930624998685 -0.2960361420531643
H -2.3428861858840553 -3.498755161907404 -0.5238624170185466
H -3.9463996243436945 -3.4770379914160268 0.3130327439840995
H -2.4840214772103484 -2.9939314954420038 1.1990028613474626
H -3.7068518972729145 2.5286960757685635 1.723512630850455
H -4.07043424679248 3.5097356618803226 0.2484379620684851
H -2.8611723812340726 4.147726130138408 1.5110154503221958