48

 N   -2.023988235008    1.164873689667   -0.646522059739
 C   -1.281989167159   -0.008531317187   -1.093517154932
 C   -2.251858999067   -1.122910761495   -1.536886705418
 O   -3.228907803810   -0.597281235482   -2.362653655412
 N   -2.872033731248   -1.802386389483   -0.406835531085
 C   -0.165317904529   -0.520723190259   -0.164323085252
 C    0.947354190058    0.498737338317    0.091825745570
 C    1.757289620306    0.918089683614   -1.157448259043
 N    3.079901375796    1.318884309007   -0.671696792132
 C    3.108805658924    1.154117546635    0.784169430912
 C    2.047080083519    0.081092034782    1.087518438598
 C    2.584046177526   -1.343520771515    0.874529480455
 C    3.918684310933   -1.569955911221    1.588444794463
 C    4.971646271770   -0.574067036570    1.100966323504
 C    4.505614894955    0.865910507971    1.333656405181
 C   -2.647841764855    1.239660501859    0.663342832034
 O   -3.916556276570    0.667552769851    0.660557041614
 C   -2.816099530005    2.694537107544    1.062985822170
 C   -3.768843998518   -2.882161332351   -0.798425349206
 H   -1.535752415538    2.004131272000   -0.871891974570
 H   -0.815036774909    0.301288151333   -2.022402480016
 H   -1.697002417326   -1.834556883975   -2.147111806009
 H   -3.503962876763    0.231103974479   -1.978286313381
 H   -2.159354689862   -2.174824199075    0.189462511571
 H    0.257309523856   -1.415240457648   -0.616570913497
 H   -0.576583139613   -0.825944932466    0.793354500909
 H    0.488186182603    1.394378954488    0.503152697749
 H    1.280196213316    1.737793711684   -1.685102928164
 H    1.835139643714    0.093609724807   -1.862556108784
 H    3.798874242077    0.783700006984   -1.111433304896
 H    2.771373660737    2.090539165741    1.222438337184
 H    1.694546999101    0.167961619118    2.113147639744
 H    1.851721316324   -2.067011479810    1.221089368394
 H    2.724803845702   -1.537953994491   -0.186949390189
 H    4.257708341558   -2.588937557267    1.423576529515
 H    3.783686316006   -1.456545000355    2.663068595619
 H    5.915650590092   -0.737150086399    1.612939007587
 H    5.166766597516   -0.747904930094    0.043965139929
 H    4.489733672604    1.053460691699    2.404815932467
 H    5.208971878289    1.575017214336    0.906145728192
 H   -2.036700543270    0.735992331351    1.411057092995
 H   -3.818163942239   -0.261752016231    0.461309992226
 H   -3.338711513444    2.752845426928    2.009214857186
 H   -3.405537491322    3.212861044336    0.314558823790
 H   -1.855811679846    3.191467610128    1.165615543836
 H   -3.280598695781   -3.632805695789   -1.421096976430
 H   -4.602552780929   -2.476637255387   -1.351005922203
 H   -4.147856475037   -3.367737341411    0.092932774058
