48

 N    1.959606541812   -1.339280207894    0.031941109002
 C    1.375849649049    0.007473637436   -0.018610155746
 C    2.438038843973    1.047556331113   -0.414651173157
 O    2.957874390918    0.796897643218   -1.700904139551
 N    1.914883428132    2.381005895032   -0.300369436205
 C    0.786353543146    0.306385422574    1.384590820956
 C   -0.675749589725    0.766556132899    1.529614792377
 C   -1.169355877100    1.944191830940    0.691701471462
 N   -2.579005520279    1.999452557183    1.044672529241
 C   -3.080027297765    0.649130267499    1.321824626240
 C   -1.819165627108   -0.262495568608    1.363750512018
 C   -1.767646014865   -1.179292357906    0.136320587880
 C   -3.004517711202   -2.092177184615    0.067235760240
 C   -4.310233196962   -1.351981087343    0.436353338249
 C   -4.135449171092    0.161933327093    0.320952486827
 C    2.493279480540   -1.955342452523   -1.145324335898
 O    1.607879118708   -1.753113539639   -2.242083193757
 C    2.700283934384   -3.441240516519   -0.895167201626
 C    2.908721801559    3.427026678186   -0.470413170179
 H    1.284791457359   -1.954044754152    0.438456616352
 H    0.591459317141    0.054880368389   -0.770633984896
 H    3.274524996119    0.962642118674    0.267150215662
 H    2.303208344477    0.362225333212   -2.233669718386
 H    1.182890992049    2.507583202180   -0.972569106142
 H    0.903187969317   -0.583668302274    1.995882000296
 H    1.403615689778    1.061965312877    1.853578359927
 H   -0.755353485029    1.104264903930    2.560586907036
 H   -1.006741085326    1.765646211178   -0.372999840665
 H   -0.668586289727    2.869192566355    0.947020080552
 H   -3.134166186353    2.484674607475    0.370485088350
 H   -3.544432792555    0.648970020515    2.305073276064
 H   -1.858429595629   -0.901420593224    2.242978091753
 H   -1.705032991003   -0.589273966076   -0.772450839646
 H   -0.877731034646   -1.797330955504    0.152686940658
 H   -2.866295848527   -2.939214358604    0.733545374773
 H   -3.078993826403   -2.503731459978   -0.935102973966
 H   -4.594776685202   -1.589024489478    1.458728684120
 H   -5.127872218746   -1.691443775016   -0.191543193234
 H   -3.836006503599    0.422010171567   -0.692330984133
 H   -5.077159450631    0.672028795282    0.506467824606
 H    3.438996556058   -1.493952789680   -1.384466145039
 H    1.969705209944   -2.158031847803   -3.019417767960
 H    1.751378557935   -3.928743919226   -0.692557146070
 H    3.363225573836   -3.593240755531   -0.051606332818
 H    3.142956371313   -3.918338413631   -1.764745095535
 H    3.431590529518    3.380595143104   -1.422327745260
 H    2.424292861209    4.392970545992   -0.384901996255
 H    3.643036078613    3.356002480166    0.324603241130
