48
trp_c21
N -2.3971930365768386 -1.2855100244126794 0.8737584645414558
C -1.463245059190031 -0.23584257847480025 1.0321033184785564
C -2.1178740235788602 1.1267483441169457 0.8883344386209209
O -3.1974894329883563 1.1821275670456997 1.8477912837773998
N -2.620100234895573 1.465021059387509 -0.3813068363412039
C -0.2302430171553322 -0.4404137185772012 0.19901880920188683
C 0.9149354893915933 0.46678538701780936 0.2651767275113626
C 0.746479821304209 1.884417324111945 -0.10179143628937982
N 2.1449060016339523 2.362714163727569 -0.3249851532844771
C 2.939464585903228 1.1891298937873482 -0.5823781511499165
C 1.9662058777531244 0.08169697777529178 -0.8161673822742811
C 2.483471359927561 -1.2723534810748507 -0.7171461167136313
C 3.574855617514143 -1.4848749385456557 0.2994920456498625
C 4.610878224138775 -0.4124826413886275 0.15025385901119245
C 3.909181287842432 0.8956892217377745 0.5344074790272383
C -3.1290829160064177 -1.5979949681815415 -0.24308036593888996
O -3.936666474861333 -2.747484127496346 0.12410951155151799
C -2.4143536288804976 -2.0763675789146148 -1.4831644021634358
C -3.995280743350743 1.9368537847200544 -0.3631002271687107
H -2.3849232281403143 -1.983747632268812 1.6602648420857926
H -1.1180271143742833 -0.2719261905096822 2.096171276304723
H -1.4750483871614637 1.9364719143170577 1.268748066084937
H -2.980240478128111 0.5402307862015556 2.5637355815448495
H -2.0690549698785445 2.1318358482110904 -0.9365071934582901
H -0.6035227769657738 -0.5114227841610327 -0.8915481770798069
H 0.137818881245428 -1.4754753359408959 0.4849782583070711
H 1.4762190876418044 0.35854654473605385 1.248875148900203
H 0.29333532154758724 2.5667952911253935 0.6069662356193156
H 0.2855600848629652 1.9127249100001928 -1.1247151579722325
H 2.469885195399029 2.8705794747529034 0.548532700437712
H 3.54868212809652 1.3732504564499948 -1.4875199052048533
H 1.4528479535065613 0.2819197323156669 -1.7759414919168481
H 1.7279794084389537 -2.0615575725306448 -0.5685965227043864
H 2.965562611353792 -1.5350599531425944 -1.7158444638883081
H 4.059381908398753 -2.462903769433873 0.07505718552610213
H 3.1968477179731707 -1.5170522994435327 1.3431164279471661
H 4.852666485846526 -0.3028986847361527 -0.9220387224169317
H 5.514708617460571 -0.5779657891043203 0.7386229472168099
H 4.685982926343533 1.6735356432601451 0.5561791555579972
H 3.4487182330393766 0.7457534011472954 1.5150537982361667
H -3.9092483260318924 -0.8808177332338775 -0.5743524259613768
H -3.4093483850495785 -3.32238598834544 0.7573252750158398
H -3.0837059960557354 -2.8543737353470666 -1.989934696654892
H -2.305563266580609 -1.3071530261173518 -2.251482704749563
H -1.5019440195992178 -2.6619812518286534 -1.2460008420134776
H -4.514023610158091 1.757250784944205 0.5761071453296464
H -4.043566856439046 3.0403221628125703 -0.5209082251709624
H -4.506828844516873 1.4996451295082673 -1.2356693809697643