48
trp_c28
N -2.3252428878305533 -1.5192303912465477 0.28108118549499067
C -1.6289327682707737 -0.27586255990272146 0.28075549047887155
C -2.486284944161752 0.7569791352593467 -0.3226971086250765
O -3.6733356295235 0.9521656294192625 0.40876893981840406
N -1.9378254565849033 2.0252151078194878 -0.6332271360293319
C -0.2959980922476795 -0.5443882329261462 -0.2938710205028337
C 0.6937916768399837 0.5422148580396264 -0.39836879980944495
C 1.0540229540643438 1.1568476240146095 0.942037395366795
N 2.4401315311871037 0.8294444555450569 1.2105022144638582
C 2.645628713599377 -0.3952730989030827 0.49191312387667047
C 2.008067148407194 -0.15288820637129844 -0.8271306114715906
C 2.798349881522182 0.6716548605248939 -1.7741050525756157
C 4.218520586108814 0.18072552524682667 -1.789281568149451
C 4.37928383742578 -1.1318771795269156 -1.053160125913826
C 4.07535827272868 -0.8449553028492363 0.42124868139970123
C -3.481218125361927 -1.7208189972839532 0.9959431590671384
O -3.8187051461373906 -3.104094505478919 0.9085312280926091
C -3.1707142863817173 -1.5150556035518656 2.4846242926497695
C -3.0467740668270524 2.997635322687644 -0.6855469180647616
H -1.9826874404344836 -2.233143501820283 -0.37372242208778544
H -1.4922410595105955 -0.009184384617207839 1.3733483820964805
H -2.887932186807338 0.35853366480293003 -1.3223269663054433
H -3.6348734647514847 1.754804449956055 0.99465840701037
H -1.6033848266663608 2.0286770598378734 -1.6513845292943845
H 0.17219494683594316 -1.3394251118956468 0.3707133930485273
H -0.3975732660404669 -1.0868573816776437 -1.2709229949478715
H 0.5106321947784326 1.3644615398982889 -1.0797556498575924
H 1.0077305484931496 2.2675476139600033 0.9269577838997725
H 0.38450613032145187 0.8446901347430228 1.7579689503496283
H 2.6364944192027244 0.7254689533383077 2.238403893289816
H 2.077889945646912 -1.207611141157777 1.018477868694113
H 1.7972966985032672 -1.1267545272579962 -1.3287779458047035
H 2.3849717337525407 0.48690217359096877 -2.8104572260260188
H 2.689373695817421 1.7447352244319123 -1.5561456600715105
H 4.648445674798161 0.04060835284325118 -2.7919675257100773
H 4.815401418044158 0.9210498253081292 -1.2167922869049432
H 3.7116354777651805 -1.9309444877714186 -1.450850599398277
H 5.401378611672035 -1.474660368645773 -1.20006459419304
H 4.264906336193938 -1.7584943378878752 1.007675375743824
H 4.772393391831506 -0.025385393514764244 0.7158567657743861
H -4.333875287921135 -1.1467645742236254 0.6665590718252418
H -4.168179505698412 -3.2909594000137905 -0.014057079624327808
H -2.14613882995619 -1.908658459745521 2.6892949038019602
H -3.1532357902079906 -0.4553838692943773 2.754662051444271
H -3.867742942846867 -2.096564559718526 3.1244447901053682
H -2.92721759676789 3.675851386703284 -1.5737272504857465
H -3.167808341016465 3.5609178746498995 0.24321750135995468
H -3.960483883587466 2.408104804662428 -0.8893037772990546