48
trp_c2
N -2.039182922236243 0.6520662618324421 0.6027291681958014
C -1.5340879419292566 -0.24021728558189517 -0.43429636973823943
C -2.4778548814816737 -1.3650928552761104 -0.7050405872940461
O -1.9585216477206147 -2.145635247841828 -1.7326000041027372
N -2.628053982454282 -2.173779151427065 0.5124265728901877
C -0.17021375081027065 -0.7834448702012685 0.06355672696559347
C 0.6579126986450627 0.4344986435364332 0.25705265792197196
C 0.8857086782746939 1.2203202216278461 -0.9971814503498885
N 2.3463178961814646 1.4410198109907224 -1.0677842841857295
C 2.726116719913317 1.4441508129819693 0.2908529958233719
C 1.9888852573015943 0.27094851390213187 0.8911689462037828
C 2.6355490989364574 -1.040196129958594 0.7935352674819219
C 4.000226724634322 -1.1037157250119645 0.20227922151418717
C 4.847975061635156 0.0972162310756979 0.39708273472783684
C 4.148821506126758 1.3752507618661218 0.6423167637278306
C -3.2470003779072383 1.3169714105940353 0.19368292026227762
O -3.2734214132130477 1.4462565014024003 -1.206083881489011
C -3.261637478527834 2.7335808386592224 0.7885080782377695
C -3.7814499493779494 -3.0119055687465686 0.35854958059702896
H -2.21834415328689 0.09398450508981016 1.4495829813568344
H -1.3352353768312106 0.31604113715648424 -1.354223672266002
H -3.4656220835569966 -0.9680727616269804 -0.9604617649652929
H -1.540866767029169 -1.5934406461341408 -2.440526145305433
H -1.750559665536756 -2.7258695192570443 0.6993110082237292
H -0.3117938471229629 -1.2936268380575624 1.0385443376874168
H 0.1652618610557938 -1.455314867187763 -0.744522239695877
H 0.028529163634527822 1.1175554724306136 0.9235437009003185
H 0.4177850798632526 2.2140752755461244 -0.9964883721257869
H 0.549028306849955 0.6790146229773426 -1.909440092334165
H 2.811786840813934 0.7508661359591168 -1.6801337701135655
H 2.289626214695739 2.3705745100087094 0.7532189001384956
H 1.8853822385018497 0.5483450974935385 1.9890390509175209
H 1.9747535643680016 -1.718675029847215 0.19115697293055026
H 2.640528452435923 -1.5434466416817711 1.809763346858854
H 4.538246467888046 -1.9688215971627037 0.6832751538630709
H 3.9483600357193382 -1.4004788098718255 -0.8819442513236604
H 5.47227980262233 0.22336221181889235 -0.5365277986375439
H 5.620728355339762 -0.056384350177319756 1.2075838668755978
H 4.675186698522782 2.257530155630664 0.17565995188348174
H 4.215877094685178 1.6022109381451914 1.748882431066081
H -4.150169275908242 0.7648300704888861 0.5015397372250262
H -4.211224022488925 1.6399486656846352 -1.5025454528259632
H -2.828596400273226 2.6825044032062673 1.8326162940198614
H -4.277579396498116 3.1204583980947014 0.8722476456986945
H -2.6492976566153206 3.41606716137136 0.18572713657669573
H -4.616705694675972 -2.424153017685458 -0.07863323390950079
H -4.122621958707612 -3.325715464951134 1.3818784617998143
H -3.6208331744553433 -3.89166239188525 -0.28873408612149354