48
trp_c14
N -2.321876830367841 -0.5441148758206983 0.9054742512516071
C -1.5666688600310967 -0.06587873775406433 -0.24093321694973338
C -1.3475355002604252 -1.1654780651052261 -1.2156540064659067
O -0.6889767735283938 -2.245180400768553 -0.5831978824721371
N -2.5382796860130736 -1.7416989780858363 -1.7768536525784946
C -0.5123360465460081 0.890726663789821 0.08386475664516459
C 0.5947847039893155 0.5531621713881699 0.9883345115078461
C 1.4720419903158117 1.8335816065105748 1.2145649864200885
N 2.7632667973214047 1.373133596979934 1.584941516130143
C 2.75053425794308 -0.0401228822845421 1.5189128684397113
C 1.7047961482815235 -0.32629822722612833 0.4208586254374981
C 2.218176969293942 0.12063528361818338 -0.9002605501524015
C 3.500520595306322 -0.6409633342847175 -1.2407248576233942
C 4.550520526330979 -0.23457020862854366 -0.2448505233508314
C 4.089015440243768 -0.6052611551266089 1.123910410656275
C -3.2765454742131483 0.3462669731488611 1.4466996919958763
O -2.7535019040096684 1.5195832492493861 1.9912319343235505
C -4.364705447165067 0.6996304528221634 0.5038403566627903
C -3.3383768340049556 -0.8928816738682419 -2.590044863187028
H -1.7534654126388851 -1.0604492152635618 1.5807344118757416
H -2.3828170336182657 0.5900605554003935 -0.772990242510225
H -0.6365775182278839 -0.8533519253968543 -2.0465671732482567
H -1.3841194125567975 -2.6291194672671487 0.024408691024549928
H -2.215695222396832 -2.550797757302645 -2.3862297073942287
H -1.017639666615878 1.814414362029535 0.5141887202012012
H -0.14104672589912715 1.3031254869537643 -0.9111477687050159
H 0.31129103966957355 0.22763041873246917 1.9740217999750014
H 1.0548607804938732 2.405021693915509 2.0809001516599945
H 1.503349316762502 2.439104034929578 0.3138739924944948
H 3.502233458334328 1.7441934402061154 0.9751852651408055
H 2.4380845707747434 -0.5677745641047894 2.433070298254939
H 1.4874174085922927 -1.3710817005422482 0.49310225389429946
H 2.553393112554176 1.183007323958975 -0.832286403281963
H 1.5277040717599129 -0.07135925169091487 -1.708482472141002
H 3.827614914433115 -0.24337610139489607 -2.2443844682632155
H 3.3551796273782966 -1.7162495843949892 -1.3212392640945143
H 4.724513077487252 0.8361836429703937 -0.3666876106694716
H 5.520297993887443 -0.7586677178922867 -0.42062682483270203
H 4.101344715613248 -1.7168153234016996 1.198644222464406
H 4.84239907168461 -0.2355677094430677 1.8480145617926365
H -3.76894984814583 -0.17763021506185622 2.321225409898063
H -3.422919713660531 2.24752330072375 1.9848955508878054
H -5.214938683938218 1.1483753992771468 1.103317110867083
H -4.09236498042146 1.5170175371076615 -0.21947902633561936
H -4.789795505259326 -0.1735154613776439 -0.015306204901798208
H -2.900823056007011 -0.7186736931242695 -3.603941163619974
H -4.28031347911078 -1.488903261112252 -2.803777689639132
H -3.6830709738150555 0.04340429401205916 -2.182550777484546