48
trp_c32
N -2.6531363019858545 -0.9003135959734426 -1.1288148900646102
C -1.8088677518518745 -0.0680690130959093 -0.23492009183329127
C -2.1649362868344255 1.3600442172396503 -0.35438994987006667
O -1.9519684636843508 1.8090266972128608 -1.6265450040106333
N -3.6260673181284027 1.5382504618910637 -0.1366516340279482
C -0.3837725524584788 -0.3655375869758598 -0.4961714583357368
C 0.6880159449682505 0.32628032243376487 0.23496979628988549
C 0.9660713127661453 1.748855078464049 0.09152916236106155
N 2.0960041375196066 1.8775108281366657 -0.84040693147301
C 2.8591965592181303 0.6995031833989557 -0.6805372878199181
C 2.015712563323999 -0.34951808610181784 -0.03518679536870649
C 2.598128093813272 -0.8352258870755306 1.2816755904119839
C 4.019304120341567 -1.258203535407273 1.1261810616559182
C 4.8453676814536815 -0.3001894964518164 0.3193941750153044
C 4.062138781198872 1.0016029275229055 0.17717094745786308
C -2.6307102245665157 -2.2843424780279378 -0.7716448384518939
O -3.5375137527141702 -2.915495847131432 -1.6653940236030504
C -3.162243304591312 -2.577016821044095 0.6105549976561414
C -3.7736407275800326 2.8301154238776296 0.5049731534540696
H -2.2489550441010278 -0.8466081185732591 -2.1097142215352562
H -2.0618898955882665 -0.4376843859550935 0.8183691104035711
H -1.718666796555975 1.9036942850228329 0.4783021090380335
H -2.3424323014304007 1.1753647884686818 -2.2640767754705258
H -3.980560377577828 0.765987353490326 0.4701816331467112
H -0.24757337979342284 -1.486011613418572 -0.3312418774488363
H -0.22821129010683178 -0.28623476261347824 -1.6276476777232316
H 0.4394787771325001 0.09769083895234555 1.360323595853046
H 1.3337753619356791 2.1402286347799593 1.0825014354419933
H 0.23717865243888253 2.4456570734592775 -0.27364551597472947
H 1.7482409198372852 2.0472674686744043 -1.810692881154988
H 3.1820076826709682 0.34178118470633023 -1.6860529876838122
H 1.910538927989441 -1.2567592506133034 -0.6662500388708027
H 1.9918206039326962 -1.7061791097765504 1.5982070083289668
H 2.44143437089462 -0.06509890710420244 2.081190166024783
H 4.036290604746122 -2.241836139753868 0.6147894626310969
H 4.478423834166286 -1.3454643787883924 2.1412100446997915
H 5.8059712842851345 -0.040765979272266516 0.7922579499930157
H 5.0669596068308325 -0.6959072974170268 -0.6924750245891336
H 4.6898314464538196 1.809211410857671 -0.24431677060469562
H 3.743281626862033 1.3039927064225327 1.1870371724067725
H -1.6572203007567177 -2.78039591487747 -0.9025194854050042
H -3.8512974915963847 -3.773521297756808 -1.2689574248996225
H -4.055397673308257 -1.9576938954146523 0.804100480444133
H -2.3782159350139906 -2.3884702974551892 1.3609761241065774
H -3.4203019327566455 -3.657447532641906 0.6596645138868581
H -3.986818478080867 3.6326253979748495 -0.25517922789834374
H -2.8324824751802784 3.13434047447109 1.0074713912340334
H -4.552292838537478 2.8309604712592904 1.3004017321761716