48
trp_c16
N -1.8854160531169764 -1.0629386370285885 -0.5327933483666963
C -1.536637851385204 0.02026350373024082 0.29931828437474606
C -2.5523244421597053 1.1007391385948975 0.3818186456871666
O -2.0187256903438544 2.133734807117077 1.2427205453199675
N -3.8420867132101986 0.7325541878681673 0.9310910909830457
C -0.25678593274343325 0.6248548716775884 -0.2901148580098697
C 0.872814971226564 -0.32364687473157133 -0.33284405423101626
C 1.2813895982826535 -0.7964597173352104 1.0200122321772456
N 2.2167217292374755 0.20907572744301883 1.527798343214852
C 2.6125963576617077 1.0309709964563536 0.42746584150349065
C 2.13565103332479 0.36833301450713074 -0.8235184632182897
C 3.053891070345589 -0.7241310640361988 -1.3138603532153073
C 4.498149814644127 -0.4860932167182573 -1.1796349106501016
C 4.9071286144366235 0.07193240773489437 0.16966156737316276
C 4.093935030336669 1.3219987034399543 0.4071822440496871
C -2.887009256407164 -1.9903901469357308 -0.23378418268220788
O -3.7153909503295024 -1.7991116817697954 0.8242714101324657
C -3.721985086539163 -2.261594260303469 -1.496777889122103
C -4.559992908533841 2.0391194675796287 1.0022085707644792
H -1.8939332240028734 -0.7666028180691074 -1.5778659715084236
H -1.3059709921560214 -0.3454397208930971 1.3589857776825405
H -2.7073033246622753 1.559969950878757 -0.5964065744769272
H -1.5753056970368051 2.8268377771203212 0.6911667865992743
H -3.627720402878766 0.549598510839749 1.9772165115213443
H 0.04244831061563107 1.530251658597883 0.28136647623760797
H -0.468851285012712 0.9891398105336462 -1.325313972532457
H 0.6530462335945426 -1.2082833340518249 -1.0126276891983683
H 0.4509754983702561 -0.8666642234065599 1.7113560809434345
H 1.7909775923278073 -1.7953030576910516 0.9739294047410975
H 3.0171345991718024 -0.21650382367116203 1.9907327819464693
H 2.1424694447096004 2.0583662420797504 0.46421990583473016
H 1.8920491994919897 1.0873376835130142 -1.6394827418160172
H 2.8241892413404224 -0.8760725843644279 -2.40033509062645
H 2.7970898067434775 -1.7088107211894192 -0.8518159637733551
H 5.008718942004318 -1.4877308815633365 -1.232971604673455
H 4.88003757404002 0.19246342048901702 -1.9527832652097745
H 4.695592201576585 -0.6441937516936035 0.9614720205738003
H 5.966275368904069 0.39054837507046364 0.13970661330016582
H 4.263086884333937 2.0343859716224877 -0.4519547965641574
H 4.347491396779184 1.8572430406324498 1.3374561599017232
H -2.396826106546142 -3.013313361379845 -0.031397032666141335
H -3.787212723506292 -2.5336953867248675 1.472483267335192
H -4.113628764096047 -3.2970608676566147 -1.472906737812251
H -4.534292554813128 -1.5163217788849714 -1.5095674286901324
H -3.0911896917360475 -2.0992640068336086 -2.39897138964364
H -3.9467685073108902 2.6592552309487543 1.7282385969926066
H -4.417733170587111 2.5144369701336378 0.01182289226491534
H -5.600769184385809 1.9162144483233383 1.3240262672319125