48
trp_c23
N -2.017731960299788 1.3405708325367878 0.6612023956144908
C -1.1610989787335093 0.4090550100301081 -0.12635001352802414
C -2.222307003582721 -0.5654203227154002 -0.7103051158028209
O -1.550186604074553 -1.4954652910333548 -1.4836024095456366
N -2.8443773193786734 -1.2652612544808677 0.3906616736667874
C -0.3165117453179412 -0.3044990055208442 0.8693657887997974
C 0.6925400231572743 -1.2792984024051732 0.4179564723667562
C 1.250136516701648 -1.890021650589526 1.7381059697070864
N 2.6492618714241787 -1.595071425472431 1.7793608092096607
C 2.804292576281453 -0.3868709517989115 0.9828182835280391
C 1.9490015492575572 -0.7588628311575805 -0.20506807254209994
C 1.8502505247682826 0.4210179059072798 -1.0811143763389617
C 3.2384534242828282 0.868173840932917 -1.507029953669296
C 4.362818507546734 0.0998831765552914 -0.9263641302243805
C 4.228435178676335 -0.22628692506930714 0.5214145108857889
C -2.872141411890553 2.115299345176172 -0.17690575778989165
O -4.163616181605605 1.6667937034608786 -0.31762187675156983
C -2.882148270791909 3.535881495321551 0.4079269678572562
C -3.60079523978511 -2.405830346629036 0.018476538001667354
H -1.4269588007505827 1.9489503814979403 1.2370186830875904
H -0.6697362137584102 0.9300310456317485 -0.9026006104563415
H -2.9691737657577257 -0.05050711585501553 -1.3158106801978373
H -1.5450284474083913 -1.2811132615756262 -2.446142819797076
H -3.388996689373833 -0.6657851468994843 1.0336135711799976
H 0.1266427477497912 0.4836431505750106 1.558391467597957
H -1.0645797333491527 -0.7954205481400253 1.5841158942595817
H 0.2694177021365174 -2.0928190705225798 -0.18333485385230927
H 0.7907018824931881 -1.4028410481045457 2.6197540679387123
H 1.024571265348423 -2.9864698285553692 1.7349178955566127
H 3.129781373684879 -2.3776318848592926 1.234490334215736
H 2.3629536877087856 0.48839808694007447 1.4549353030658942
H 2.399673094848138 -1.5904522599941429 -0.7858369095412641
H 1.4435247639591104 1.3264149769565092 -0.5578436809831838
H 1.2417774850664662 0.2363623573820855 -2.0053947763361957
H 3.3610518746516758 1.9881232649886527 -1.372767435718594
H 3.2909121116947797 0.7618013776995831 -2.6292005721326475
H 4.63260584253248 -0.8120113882074023 -1.4959383223278608
H 5.278630401918498 0.7543856104841291 -1.0303263701841088
H 4.6957819100284235 0.5658308025306055 1.1546211388515202
H 4.7625920546174205 -1.1763024974309806 0.7283893487471749
H -2.3928735288388423 2.161837058109959 -1.1901409940001064
H -4.570354716516311 1.875002148065909 -1.1908671561083095
H -2.75268351984245 4.304731712211043 -0.36657314792558326
H -2.0403796475076192 3.6487681400216956 1.119127089721575
H -3.839370747821864 3.735344227953656 0.9317273252230766
H -3.2466411324189584 -3.286940166181593 0.6140479594240787
H -3.5991888060148516 -2.639284232314775 -1.072450196869122
H -4.698927905716165 -2.3358327954564335 0.2871507441164013