34
glu_c23
N -0.7393215504216692 -0.43839996156128436 -0.7543955676556946
C -0.10824853251840443 0.02644885129022004 0.4637180633321066
C 1.4138442719939814 0.03417467442386558 0.3012570354231695
C 2.004487017372883 -1.2875375732298076 -0.0572203528049045
C 3.520586852208037 -1.0400769648911359 -0.16929632378946421
O 4.014227759976892 -0.5746536161227215 1.0542731381652979
O 3.7604815086334455 -0.019213139675621035 -1.0838828755730199
C -0.4655678006016829 1.4678126796681725 0.7319523271568034
N -1.8303788200448416 1.8199066022644506 0.5784544832964745
O 0.07106817068320781 1.8775028953426776 1.9110823567082682
C -1.6902970259702053 -1.4895159831159732 -0.48869919422391356
O -1.1430100095121334 -2.7605261421923575 -0.5019064413549341
C -2.8812168461057532 -1.4660946002494883 -1.3867993516665575
C -1.8428587742234714 3.2764586703445815 0.35588481015865286
H -1.0083128290507923 0.28023753115679645 -1.4273034703177463
H -0.37376945303193304 -0.5978863849013514 1.296684306947793
H 1.9039383966771455 0.3780345926218652 1.245054569861666
H 1.7172593795932372 0.7840428386314353 -0.4623937042566303
H 1.8514189286797673 -2.0971122455134212 0.6483712003587515
H 1.6901332060948568 -1.6256734799297765 -1.098839728539848
H 4.045635159922845 -1.9601948757326668 -0.4393717746334061
H 3.5992025438085222 -1.0364160036808034 1.8175751193661935
H 3.0259908842718843 -0.07888853404114507 -1.7565535789864704
H 0.08496903699026014 2.097328688482122 -0.07106680033052892
H -2.2597331729198578 1.4405934465067118 -0.3061814508579905
H 0.2043117995488881 1.08448636290325 2.534822701904415
H -2.09366936507849 -1.3504863284949506 0.5510830960214663
H -1.434470067005249 -3.3261294188105825 0.2462923177193376
H -2.696258850813394 -1.7419303955215708 -2.428019134432275
H -3.6204122551084352 -2.205292217072372 -0.9632828067865693
H -3.3678199925987435 -0.46599926008317655 -1.2868228880713137
H -2.8145308968870357 3.724827715783426 0.518271015696961
H -1.407456118111352 3.511409217949721 -0.6554975567590922
H -1.1302225564523816 3.7587623574508715 1.0827564589229797