34
glu_c16
N -1.6305628328906672 0.3831067477855827 -0.4648078609604289
C -0.3068409192698342 -0.10402663564971243 -0.5653642526061471
C 0.7603530830618098 0.8661627180127842 -0.2220174823606548
C 2.1571030730030256 0.315593832552477 -0.3780111681740883
C 3.185198680955776 1.4087519825312438 -0.047137632980877135
O 4.434091059087174 0.8566071484536538 -0.20373233038094535
O 2.9606422500318694 1.7487742938547393 1.2856139182727577
C -0.2595501297575854 -1.4092228704091352 0.22309367814667735
N -1.384982841354493 -2.2066286911855038 -0.13631016177916488
O 0.9356504680984397 -2.061522647208543 0.1930483908179666
C -2.2283121921733673 0.801939122805675 0.706549934206629
O -3.6224841242553993 1.0453253060253127 0.507875104369881
C -1.6146214181787828 2.040091916495297 1.2953458472168164
C -1.4659062489201604 -2.65313640635911 -1.481513800847338
H -2.2533037122662853 -0.11410597092171702 -1.1098567280223939
H -0.18333569298196878 -0.42325171022955066 -1.6485810942003396
H 0.6673657624286476 1.8085179762040828 -0.8189862127441637
H 0.6633500899198974 1.0618034847630162 0.8886194637690014
H 2.3560852922471653 -0.4793140039090276 0.3692585900187028
H 2.3110702351884598 -0.028230370700931064 -1.3978738683811216
H 2.9962728470529196 2.269461382169093 -0.6815779116391527
H 4.745435241387494 0.7852791931348414 -1.1186665452133375
H 2.9487706622017655 0.9530084174503661 1.875554136389542
H -0.44439126482496477 -1.068505930604375 1.296452309081484
H -1.5374921869373062 -2.9725493559330713 0.5435601174698894
H 1.0893042703766198 -2.485714917478247 1.0704069191831167
H -2.230742791737693 0.02138845340671507 1.5353126764057383
H -3.8782325336883474 0.8638613167794168 -0.43581660960033186
H -2.459278287548469 2.7284472455054574 1.6083626417169334
H -1.0485651135327014 1.8273988935989998 2.221629906743891
H -1.0044985284393377 2.641098536383855 0.622031082033156
H -0.6895464369862567 -2.289721561847105 -2.1491161067083175
H -2.458999626837927 -2.3503654391122573 -1.9084301893279276
H -1.5090461324592963 -3.7803214563642755 -1.474914759915378