34
glu_c13
N -0.5365863095410192 0.8116484678309291 0.5150358064415733
C -0.33297836870550535 -0.508297650480895 0.12255068294438409
C 0.9738521924539407 -1.14055469465355 -0.03494306908743911
C 2.048644856677304 -0.6828767091930112 -0.8953056384420609
C 2.7342131303155712 0.5764046578041301 -0.5310812767100103
O 3.3366468928827375 0.44986255913381784 0.7587294333552668
O 3.884101506670604 0.7936077103169704 -1.3748394409831834
C -1.1541270770284628 -1.442521301318415 1.0741198243021866
N -2.56442121404686 -1.106395234966213 1.0170373752905917
O -0.9184900141619995 -2.731985700695663 0.6254216601686209
C -0.4762811340790512 1.8533398985654062 -0.4706343288966163
O -1.8607918505724341 2.075578090966058 -0.9068588344344317
C -0.11872030944906951 3.1790896463276113 0.15178623259534102
C -3.0643766200499907 -1.3491892252422737 -0.3375385615604148
H -1.2971868567747034 0.9606903009095356 1.1887917871116405
H -0.9085730977812148 -0.6448112032035624 -0.9000676614076119
H 1.4031828532800026 -1.39961240796396 1.0281508243641255
H 0.803613290312563 -2.2632401880896484 -0.36455111358668646
H 2.8946049548476998 -1.4605780723898778 -0.9375683100650024
H 1.7473187590927417 -0.6309531398171595 -1.972571405017722
H 2.172934448812372 1.4779152890179292 -0.4821260594082361
H 3.984097790907368 -0.26222767129660485 0.6608261985720274
H 3.8847646020368978 0.0327594783733035 -1.9954625182708376
H -0.7331712416286391 -1.271575960509765 2.067085141532507
H -3.0669347640884648 -1.750592702311502 1.6555190696986235
H -0.6458958380812182 -3.366616470746181 1.296848519657257
H 0.06240464140600175 1.5875941686127395 -1.3724822620967294
H -2.421727334655921 1.981273650666615 -0.06646609502525298
H -0.5909266220805778 4.026017331492234 -0.44302679554198515
H 0.9598532044543195 3.339474522032025 0.23790827236066336
H -0.6006245775437392 3.2022214569623 1.131279613071348
H -2.5217827950218794 -2.233245184603688 -0.7306041607591826
H -4.152959176447078 -1.6297826151332073 -0.2274594495321027
H -2.9236779224122795 -0.4724210963964639 -0.9935476561455574