34

 N   -0.922683015995   -0.812577946181   -0.148527015013
 C   -0.223524753783    0.372482854698    0.331680175015
 C    1.274654174926    0.172870932979    0.068222846871
 C    1.850846538343   -1.087218496056    0.715905032432
 C    3.356312521786   -1.188575438397    0.553082823872
 O    3.745157420614   -1.287893956100   -0.790829906971
 O    3.773780528421   -2.339689096508    1.190879025977
 C   -0.758021825979    1.702841100765   -0.255416990314
 N   -1.937330295768    2.094659989301    0.457208563967
 O    0.222832481783    2.721179630627   -0.303084118189
 C   -2.356731048006   -0.906741528611   -0.123599204164
 O   -2.995942448615   -0.226285082114   -1.184050531848
 C   -2.771119175438   -2.372601061134   -0.123836104173
 C   -2.713311514373    3.160924923006   -0.146267917002
 H   -0.568565120217   -1.093913767211   -1.042531323848
 H   -0.368128951197    0.410927766588    1.411315380586
 H    1.811760781185    1.041816572567    0.431334134751
 H    1.438784233775    0.147815697363   -1.007620034188
 H    1.414832442861   -1.982444399551    0.293790390924
 H    1.627594111095   -1.093599661695    1.779289027996
 H    3.844795592615   -0.316536204331    0.992091218730
 H    3.810991249976   -0.424862954769   -1.174436283829
 H    4.670819416098   -2.514535523756    0.937488112890
 H   -1.027210838114    1.543255013006   -1.287866993657
 H   -1.718540619618    2.303766791239    1.412730230934
 H    0.434881950415    3.002782658998    0.577254422908
 H   -2.707565851691   -0.421161097894    0.771093430679
 H   -2.953414354416   -0.759246275671   -1.966986690291
 H   -2.391903882945   -2.878836037239   -1.010430969302
 H   -2.367718651528   -2.881778959277    0.742315387684
 H   -3.852164649988   -2.460723425614   -0.119208680176
 H   -3.096484523720    2.816802386741   -1.098647286775
 H   -3.562138250150    3.384276672163    0.489574426334
 H   -2.149694684465    4.077682284120   -0.308875784416
