34
glu_c29
N -0.7378329597302866 -1.0061118191088037 0.23834654527820176
C -0.055835593490239185 0.17061733312134186 0.47005959060351254
C 1.3594203663352278 0.11632084160992107 -0.04480468608635782
C 2.185452814500455 -0.9651712668498134 0.5608876993825883
C 3.6265388307653073 -0.9578227343852544 0.04347072299826029
O 3.700043215316851 -1.1570401061728544 -1.3126981498104922
O 4.387348664020158 -1.9676893484404132 0.6406833350273272
C -0.6516672461168738 1.4429477358003349 -0.06771197035636317
N -1.8995338130603934 1.829247615333104 0.5218376856809441
O 0.2521535234224168 2.4636903475411476 0.3047048103908494
C -2.113587515305088 -0.9510886881868958 -0.15770060139429307
O -2.198232387600105 -0.5333434437824862 -1.4716804807098025
C -2.652273795746763 -2.373254028782526 -0.09880032320471896
C -2.275914164994243 3.114936851534295 -0.050629315126244204
H -0.28628044732298663 -1.7319892201203249 -0.34406089861333766
H 0.030435380179154797 0.3336200260760449 1.5848190960548847
H 1.9055470372771448 1.0854506005091253 0.1937307799282788
H 1.3475918794732507 0.09851268889432267 -1.1579727340259818
H 1.757757840497739 -1.9616284587090034 0.26259360563453793
H 2.15756870165463 -0.867004213230587 1.649039067533596
H 4.095427696822795 0.02569573502524421 0.25988160045840963
H 3.0023276131470764 -0.7440510816380634 -1.8526527527864007
H 5.353843893042921 -1.7189157395317396 0.43510970624510453
H -0.704205596863599 1.4894603079042403 -1.1746614333633913
H -1.8145239999252805 1.9923643560649702 1.5565743881187244
H 0.4786412508007626 2.2402034316573247 1.2515815789222606
H -2.7509857476887087 -0.3810842305294678 0.5393493695295878
H -2.055615249972964 -1.3363479666355804 -2.0496930871795604
H -2.232405601202941 -3.029721675114171 -0.8725817328954637
H -2.391324436115453 -2.7368896416723043 0.9368033858738826
H -3.768345122656805 -2.331669574412941 -0.10780309563995602
H -3.0210384893154036 2.944390319814259 -0.8481376950696105
H -2.6330403323289033 3.8159875357820225 0.720485218774232
H -1.397456207814069 3.587377510630869 -0.5583692301351404