34
glu_c30
N -1.2697777753443225 0.692247568928519 0.39118406417936513
C -0.6705403944880367 -0.38680842802455034 -0.2868155779556353
C 0.6982188219130091 -0.16433945352809567 -0.8222399464097895
C 1.736796536489107 0.18742059414275072 0.22037550184403124
C 3.046096829002394 0.42192506386592277 -0.5119552557135978
O 2.8983896841001657 1.4601521026257556 -1.4365337570903425
O 4.061295634496294 0.6898762145489621 0.38313470075258454
C -0.7151303520596964 -1.6911498841119372 0.5148529510919109
N -2.1322089003962006 -2.045170636145805 0.7013462188638127
O -0.05477307166983008 -1.6145669027529976 1.7066718976297768
C -1.6491724482022234 1.857847466294302 -0.2879725489121793
O -2.3854333051654306 2.7137443320752763 0.5797740102193305
C -0.6222666792750207 2.6833715953881714 -0.9533566793859842
C -2.299586741838789 -3.4717748829856836 0.7255343470141106
H -0.723068646714316 0.9577644169764623 1.2411364168249908
H -1.3039593846645388 -0.6229262145235955 -1.2116910960350804
H 0.7315117406805498 0.5858768128392243 -1.6246119737663518
H 0.9956066123064651 -1.1539141996031286 -1.3147300674719804
H 1.918763598363769 -0.702087824250744 0.8707600477912161
H 1.4335577704547264 1.0314888140747709 0.8312143952438723
H 3.2838047987975574 -0.4992805863207292 -1.0656285265240533
H 3.71256996606107 1.9436814748182738 -1.6414529326496372
H 4.466104702293535 -0.11016955138086952 0.7492162254718746
H -0.2910223326950074 -2.501665403218282 -0.1226500610418657
H -2.475767826085346 -1.632965064301885 1.582067914421673
H -0.0945000709761223 -0.7259146553726871 2.1055903628795205
H -2.427710130640924 1.6114733775595393 -1.0869498126069743
H -1.7104981130313097 3.2186160473621377 1.0928804798929155
H -0.8977520181288211 3.7837884660859995 -0.9312129694919581
H -0.561165269076694 2.483458440381208 -2.0589547627281983
H 0.38415114239175324 2.6371467489402676 -0.5058535289508682
H -2.3066897580918373 -3.902593857685885 -0.3159267651431367
H -3.293198701187146 -3.7424273228517926 1.1957604519154574
H -1.4826459176189415 -3.9921246698488777 1.2870362758411031