34
glu_c10
N -1.1464016330198552 -0.4747670202384795 0.8413042304872286
C -0.1788280750453376 0.3363269020797035 0.25720589852980075
C 0.9359353002827874 -0.26817432115053247 -0.534167130466698
C 1.717133826967526 -1.172992062187843 0.36268900995279935
C 2.9343332702901193 -1.6812661837974043 -0.44202045732830764
O 3.642479171617732 -2.5267434839648333 0.37780730878678886
O 3.7892068244988684 -0.5433033806982953 -0.6281665301748333
C -0.6625701106507909 1.6369251783878114 -0.35024350801862286
N -0.8355394585918567 2.7519137913301157 0.506629374568448
O -1.689189652188376 1.5071302152559474 -1.2559801337473804
C -2.0387280645453374 -1.259125706650067 0.08035457735540931
O -1.6058946166201173 -1.7079327885648798 -1.1337876052660756
C -2.4820765448279998 -2.4592051833616457 0.9052353821033771
C -0.37896491283680206 3.997230941095473 0.0025221120604811357
H -1.6529171147915855 0.009434031334921432 1.5835020692414183
H 0.40972633487556304 0.7226214474092574 1.189341565607412
H 0.6400455837349401 -0.7475852259829453 -1.4829877670469704
H 1.6231654585175705 0.587361023201012 -0.8325650401648851
H 2.1509635443644424 -0.6190762763342069 1.2252270951996107
H 1.1433542612919387 -2.0626780866758625 0.7320378173364827
H 2.655345605182468 -2.1047765803536573 -1.4137070973832393
H 4.585713047023328 -2.232527161548109 0.48137011062873386
H 3.699061255091883 -0.24237101863733623 -1.5505199137551708
H 0.2821560090484766 1.9396391462555267 -0.9968713120748712
H -1.094663261670169 2.6672457771758045 1.4616984745395767
H -2.5184462214931225 1.7934523468259245 -0.7496520233588195
H -3.009548283904446 -0.6912066425400654 -0.15714354250635792
H -2.3810331739242243 -1.934678064972508 -1.7045748291459164
H -1.7657334273987593 -2.6596950922525084 1.7634785990715842
H -3.4699335060038483 -2.313474360236939 1.405131345499262
H -2.516242630083836 -3.382359999673627 0.31442946803944416
H -0.8232929371101783 4.275256010352824 -0.9787875116269767
H -0.7072025912427955 4.7946046082659075 0.7245798688719787
H 0.7485867231616511 4.0647972208514584 -0.0033699058147582013