34

 N   -0.826458135927    0.790494472510   -1.065268940235
 C   -0.378803539993   -0.574825785013   -0.839547747115
 C    0.842637077890   -0.672843815745    0.081257188348
 C    2.116306194273   -0.137619147438   -0.578190584541
 C    3.327143764391   -0.163415560620    0.337281972218
 O    3.073446349098    0.693790366006    1.402601465508
 O    4.495500084058    0.200235287732   -0.324325962105
 C   -1.513159201644   -1.546682827258   -0.452812085544
 N   -2.109860536611   -1.279544017753    0.824693820256
 O   -2.552927924296   -1.453194740979   -1.395213094256
 C   -0.799179674926    1.800384872605   -0.038669176691
 O   -1.426870024885    1.453043830794    1.170297346468
 C   -1.414118682019    3.076869209165   -0.596336829136
 C   -3.077445622351   -2.272993178533    1.259096484720
 H   -1.706371776514    0.776085556543   -1.540487524455
 H   -0.061350496841   -0.948344633592   -1.814259913903
 H    0.663569127452   -0.150133794432    1.011540376590
 H    0.998216546811   -1.721632078279    0.331276750104
 H    2.355898367639   -0.729709766032   -1.456414173960
 H    1.965278868501    0.884113661647   -0.912890768580
 H    3.516200253870   -1.169834800401    0.694970089188
 H    3.817027381511    0.680960330405    1.991232371462
 H    4.388526640825    1.078133996808   -0.669947763348
 H   -1.102035363671   -2.561598426364   -0.493350076080
 H   -1.395381533576   -1.166918247331    1.515568361575
 H   -2.315283769612   -1.932343462430   -2.176736861649
 H    0.230526593823    1.996899920112    0.227024975834
 H   -2.106393505101    0.808694549725    1.000606925730
 H   -0.879250716559    3.415067413962   -1.476985985693
 H   -2.454852576093    2.911199423026   -0.863766896106
 H   -1.385097705926    3.853962623316    0.157837510669
 H   -2.669999332139   -3.285548934831    1.283182500155
 H   -3.928098801946   -2.264141048477    0.593874302891
 H   -3.419382112177   -2.018571535792    2.254833057051
