34
glu_c20
N -1.386311578196693 -0.12107123881712527 0.29857929058318233
C -0.3283169562052054 0.6366092338623129 -0.01879762235513225
C 0.9137916580005924 0.22674755434344276 -0.6970829844955524
C 1.8216168650367648 -0.7604946074064771 -0.07096048427686792
C 3.0609767632282274 -1.0008099700993591 -0.9616551918350688
O 3.832939363483999 -1.9336372361169156 -0.27308242857256776
O 2.6854583497109497 -1.539353824240424 -2.188387231829119
C -0.8739104785423504 1.8140349276670193 -0.9223414251246406
N -1.9677260985265768 2.397746772563736 -0.25507836446007026
O 0.15971694319609725 2.6323366216956785 -1.2825883156581712
C -1.6459537578930235 -1.2085288760260207 1.0786959122787279
O -3.0665205333423855 -1.416280473755685 1.113027855335221
C -1.0694509436151896 -2.543135675819588 0.6759835364769731
C -1.5923480611744347 2.970394780228457 0.9907539156900131
H -2.210111894876351 0.03531369171367924 -0.3728640939918158
H 0.04455679172372047 1.2425686903628868 0.9168653194116172
H 1.5803303685687773 1.1364932104421617 -0.9178859609388498
H 0.6550955549503322 -0.07839296607034782 -1.7736119828677992
H 1.4652082456129252 -1.7344107857617097 0.1932339387749728
H 2.2759741942796152 -0.2843959626398373 0.8524210343793306
H 3.5738588093875876 -0.036530952761055224 -1.1274484716002287
H 4.044583720845189 -1.6270044926704426 0.6420097360874749
H 3.3728852218279597 -2.2040464177713917 -2.443164150988799
H -1.22268961889465 1.2838426799742486 -1.8517227051637832
H -2.8633294333085524 1.9292531733200124 -0.30069245783901566
H 0.7336118064517642 2.9477373469174832 -0.5378617815033686
H -1.4178779618969077 -1.0445707296281272 2.191736202852084
H -3.2483225803711413 -2.344007011345948 1.3645237795572753
H -0.6958839405821763 -2.4446086833237164 -0.3768863338084115
H -1.8818715514204931 -3.333884567523267 0.6844586680918905
H -0.25206540873545236 -2.892500659746915 1.3323102563912825
H -0.5923224194509781 3.433709567928809 0.9290342566311593
H -2.3251269543981627 3.7219891370389684 1.3664521420249627
H -1.5804644848738334 2.13888774346532 1.742026142742979