34
glu_c2
N -1.0466807511018938 -0.8526733218975626 0.9747959797421966
C -0.17963775657572298 0.2375971024839154 0.7203905721163132
C 0.90061285003375 -0.02093264957807232 -0.28597684611244434
C 1.7854498852617113 -1.159472587108433 0.17641708414357116
C 2.882636975098215 -1.410507707668533 -0.8630569779259822
O 3.6474692950833174 -0.24537075189812874 -1.0048688079539738
O 3.739870182016037 -2.412499312563517 -0.44217678862406756
C -0.8702048125846096 1.5522357775289681 0.4634295376917076
N 0.16484311699206342 2.5836961632259383 0.2733850431511384
O -1.7201620907923278 1.5306954254778071 -0.6261518880141445
C -1.833550791270621 -1.3426624695032894 -0.08834496335233097
O -1.0935029392266187 -1.93191986610658 -1.1217603210375902
C -2.68281093495368 -2.493284529173429 0.47587111811618193
C -0.40550952615110125 3.902691189067531 0.45771750027157176
H -1.6436259844921364 -0.6353382634017409 1.7804370051186462
H 0.3798829871963508 0.40782819347658245 1.6948655241392376
H 0.557817296281867 -0.1306696225126224 -1.3128343914154519
H 1.5741271385548494 0.8813681170137129 -0.2674829514775013
H 1.2525101368680098 -2.101101123485049 0.31633146171874577
H 2.3047663297363905 -0.8427935726204628 1.1000901112320534
H 2.4356367516516046 -1.6545531734371541 -1.833410137482684
H 3.437944944357017 0.21956149124759658 -1.8601936667128591
H 4.370351758205127 -2.112077278705676 0.2587348154302732
H -1.4665241090206746 1.9025046194110375 1.330797304118298
H 0.4492195500783063 2.5075892230425763 -0.7297084046928641
H -2.6501007691312504 1.8437034590526211 -0.3996054906836845
H -2.5480925186747867 -0.6460557951528495 -0.5375143079090947
H -1.5390556731882696 -1.8592279270774994 -1.99371623677368
H -3.0688883258490867 -3.1381290712658436 -0.35467560815039706
H -3.5000759644734796 -2.120228894185565 1.095736893684825
H -2.0412503210454225 -3.1522194698771853 1.09767118608659
H -0.12745031445910063 4.2877167287264175 1.4600737969038577
H 0.02330026679725316 4.568821258982837 -0.2947426304946791
H -1.4893158812209362 3.8357086384817776 0.3394754851483042