34
glu_c31
N -1.066172923783201 1.1748072875957551 -0.9329190561445646
C -0.2758698223875566 0.017147542727970637 -0.9128924261438752
C 0.6296032589190876 -0.08766514181839935 0.2558905908130471
C 1.4479393259746836 -1.3959993517787455 0.18742909225462778
C 2.362755743892662 -1.4406782909874618 1.3963546746274056
O 3.097479389039737 -2.609201853007374 1.341630951979256
O 3.232033276574748 -0.35118013297925604 1.3982751069083772
C -1.1452392076578661 -1.2220005146256199 -1.0612514552655599
N -2.221921961063355 -1.246639004647863 -0.14139707022740344
O -1.7490969626521693 -1.1357226128648832 -2.391271698561566
C -0.5470255202304354 2.4647025249451477 -1.0120863840825527
O -1.6625313892758409 3.3439818554788086 -1.1522611109275362
C 0.2780709966657338 2.9930019344167436 0.10580338653591485
C -2.021972321081423 -1.310137464920314 1.2404591592654006
H -1.9890690643325308 1.0936846843624002 -1.407300260560559
H 0.3647291710249134 -0.04212693966511269 -1.8813457450804256
H 1.3857206620730755 0.7629286596088343 0.2655856236891788
H 0.18494434532242018 -0.04980541967194053 1.250882869399672
H 0.7404651617223645 -2.2187136635812807 0.31354860308240784
H 2.0671247742568126 -1.430549830539454 -0.7116320518884016
H 1.7891309873036352 -1.432954275671282 2.3420745825868043
H 3.954160065906883 -2.480086026822887 0.8518519870910781
H 3.909713168371602 -0.5201975026364654 0.6839510493776694
H -0.6121696594156546 -2.162678793520917 -1.1109640340101434
H -2.9394443353960327 -0.5227573573430068 -0.3661061832819803
H -2.317533024769635 -1.9225525825469987 -2.5214141887499326
H 0.02551112792434998 2.670087472087129 -1.9710193915591128
H -2.1158447403794645 3.4636923203958125 -0.28786828154379673
H 1.3637946630101818 3.060935017645092 -0.09007067718946558
H -0.012334219914866985 4.0833586662057195 0.28768334214827845
H 0.036032849363538955 2.4885173776196234 1.0682048588010966
H -1.189187138124595 -1.9115702032736963 1.6024917513924364
H -2.9391658989611655 -1.8487807504967677 1.6764369947239806
H -2.0646307779203683 -0.2748476296893553 1.6832453905403124