34
glu_c27
N -1.4239454610203626 -0.20638843668549672 -0.5246509909522223
C -0.16930427684340416 0.014328471697293779 0.17684622885934606
C 0.7169957759350498 -1.1360758151471673 -0.07165639238960923
C 2.0461622062068603 -1.2989770351547336 0.48521299065070467
C 3.1479492923243853 -0.34387543233808837 0.20361356157934912
O 3.371107953412015 -0.26134643653098544 -1.1743843573793087
O 4.403774553044877 -0.9589915548698054 0.6396961538222157
C 0.3188793991984791 1.3518343269287045 -0.18342799652852312
N -0.40600763721931793 2.482089107015959 0.17313890708124
O 0.4784180838482598 1.3962295911021854 -1.613698104096365
C -2.1072858355621804 -1.4043865526459514 -0.09290481014691754
O -3.36501616605872 -1.3480524832719998 -0.7640684904502135
C -2.4340702618692958 -1.247384994011625 1.3700619044018172
C -1.6413886517561782 2.8640857927159082 -0.3104082195912442
H -2.0938547507906797 0.5558935185741074 -0.41742657328203947
H -0.442730666878982 0.026776708054048623 1.2711401602534562
H 0.1186649039326069 -2.03416468422113 0.3396003704094115
H 0.7948078985095682 -1.2838934900802301 -1.1944120631791493
H 1.9879678266477534 -1.5235526036384426 1.6106712543914996
H 2.469201939445634 -2.3106034643590863 0.12747074642638215
H 3.1935279969813677 0.5878765879152045 0.7540075154371202
H 3.1728714079176155 -1.1173011422775894 -1.6167689264791296
H 4.5738458517558085 -1.7431917984900076 0.09286595952050407
H 1.3750601612541082 1.5445980082573547 0.16398579992075232
H 0.11897566304222162 3.208397084694377 0.7318176720584507
H 0.220758034724848 2.2550131649906078 -1.973901396440519
H -1.6934525704918173 -2.3506724199614544 -0.3608836466527217
H -3.212789588907941 -1.4200978697101236 -1.7477038709726047
H -1.5751271472805848 -1.6031812105189465 1.9805225952938124
H -3.3555583464515077 -1.7886152938363098 1.6398651839168088
H -2.5517171661868265 -0.17376243088353732 1.6225616411843407
H -1.6514435628099435 4.0210644933124495 -0.37807229676672915
H -1.911073114189218 2.5988440740658003 -1.3605166429706224
H -2.47420374386482 2.647484219308547 0.40180613307080115