34
glu_c12
N -1.3980318107547822 -0.8680399515311562 -0.5129667937095365
C -0.360337119523904 -0.2323800774112464 0.2598101643507075
C 0.9532625968410287 -0.5681911856722642 -0.33134196739236155
C 2.1387121474828867 0.05803871275875209 0.36892950870606617
C 3.4305053571350577 -0.4212005203636738 -0.3066754828464004
O 4.477499139563746 0.18129873083573472 0.37554409470061834
O 3.4775601248227215 0.028659859275357455 -1.6394679744572707
C -0.6753650249222638 1.1132971484054426 0.7319176851508188
N -1.3134503236190858 2.039800301941762 -0.07543841578790783
O 0.3522030680289197 1.6733814953042938 1.4470987448310877
C -2.5395623276425177 -1.3202224523907748 0.16600353746568552
O -3.4295911276494775 -1.8646135588328228 -0.789315023976535
C -2.3128737289199783 -2.39830441751059 1.187983196983642
C -0.8512377380515275 2.5596094679958976 -1.2706691444889748
H -1.4882831552431517 -0.5365269940896608 -1.4707100190495588
H -0.3728799123953308 -0.8837931915730542 1.2192457189267287
H 1.0760940307078066 -0.34116007387819275 -1.3978962111112387
H 1.0402548840919101 -1.70139405892195 -0.262826033186059
H 2.1226391325585254 1.1788255298715793 0.26273759639430594
H 2.192379140164719 -0.2569704574609448 1.4159317376285778
H 3.455628344702235 -1.5168560325984215 -0.2763548501729461
H 4.18260414589239 0.5158664868807205 1.2681885480723942
H 4.259325781666284 -0.4063336026555111 -2.059226272649479
H -1.476044294781234 0.9375595477652862 1.5764033785437954
H -1.9789096901731942 2.638026534223292 0.4732463537078618
H 0.4795498256600783 2.6310038985740274 1.2221154615709384
H -3.0620947935482983 -0.46808213283807776 0.684225394795662
H -2.9437032369262326 -1.977050079522192 -1.6537670006208485
H -3.3261717188337947 -2.6756535849479963 1.5950850263324006
H -1.7404508144639101 -2.087444861820304 2.069886547083325
H -1.9268193422627506 -3.3341468220094983 0.7157301250618495
H 0.16644388084515246 2.442735930968841 -1.603101307683126
H -1.0732708359030412 3.671061242281987 -1.2854999249218158
H -1.535584604549061 2.1891991689452532 -2.1048263982524382