34
glu_c19
N -1.033551248402182 -1.1712560438567254 0.9245318091895562
C -0.26742451834373 0.02378107256229851 0.6480232139385264
C 1.1532333001382244 -0.25469892746441447 0.35520970685911013
C 1.971844729453862 0.9669196844738154 0.055435198434700766
C 3.4264923133066127 0.4554771577857999 -0.14401154499093796
O 3.773541999582113 -0.1484960178224813 1.0556317802823196
O 4.244810757249856 1.5021929476580866 -0.5010446557420714
C -0.9555381125961461 0.9369231411124991 -0.30892650033996705
N -2.2336209100887965 1.3939793878075335 0.2670625450124953
O -0.21886981116754756 2.0919139301571374 -0.5053070406713007
C -1.1477903087970116 -2.1229057780040748 -0.1082592406421393
O -0.007961017988364273 -2.82804238712442 -0.4348348170164398
C -2.135516893213604 -3.1933154662414753 0.3984204400818886
C -2.7408838455330073 2.4830987598063725 -0.5593293190501489
H -0.8632524533865843 -1.5499007081506218 1.8567835355123832
H -0.27345341382281213 0.5823241190917864 1.6382500857994633
H 1.3174756244192662 -0.9386845811768739 -0.5108013517461849
H 1.6160298405390563 -0.6958962172873755 1.2881151316854695
H 1.9219204984691376 1.7682592627135876 0.7838253380105741
H 1.7444347513069254 1.3063346561093592 -1.0120333293792216
H 3.4333805853452675 -0.30915436221241954 -0.9392780807344251
H 3.3515327847486183 0.39203502108824523 1.783568426234806
H 4.710061029974875 1.3620683703538516 -1.3529860383896688
H -1.171289791318959 0.417457051872007 -1.2761815467217525
H -2.020048314917547 1.7998342553539255 1.2046286619803142
H -0.33538163920759717 2.456957952435981 -1.4209514850550793
H -1.6002908203454027 -1.7128044957438757 -1.0301399831244098
H 0.15142888473634666 -2.9039959111327667 -1.3954317780146923
H -1.9055756544437745 -4.183760000415286 -0.050772178190341244
H -2.005915735052798 -3.3200585592889453 1.5124510235970794
H -3.1712912462010947 -2.943536947563119 0.1406355727965104
H -3.86075405818584 2.445579368344922 -0.5831751171959902
H -2.408873795844905 2.409749332625743 -1.6205064096764892
H -2.458903510412442 3.4816209321320004 -0.1586020527340248