34

 N   -1.443806462547    0.810985698475   -0.853391957830
 C   -0.461961006272   -0.242697505441   -0.633227890095
 C    0.990799344549    0.243717923668   -0.430827021801
 C    2.051778503205   -0.844922122936   -0.632233920439
 C    3.477193197764   -0.315326436726   -0.573856975688
 O    3.769050226832    0.292439949902    0.654904366681
 O    3.636125450233    0.633622284386   -1.563340865136
 C   -0.881967540771   -1.288579350098    0.418522286761
 N   -2.286714405914   -1.609019543498    0.367238352575
 O   -0.664255812152   -0.886738062072    1.741512316853
 C   -1.969943066725    1.753088163895    0.125168643214
 O   -2.983559960313    1.185803083403    0.893200715134
 C   -0.974420067434    2.437194746073    1.058744738685
 C   -2.753223159179   -2.210239258287   -0.868263075728
 H   -1.227049984183    1.288238276149   -1.702148710316
 H   -0.457606537100   -0.788876699926   -1.574423931252
 H    1.174120634886    1.024295981497   -1.159059183747
 H    1.121650610177    0.704562846851    0.538728582987
 H    1.970874942910   -1.626471448850    0.120895801627
 H    1.915994581791   -1.328516686977   -1.596172440084
 H    4.174229311542   -1.138931118646   -0.730148517515
 H    4.107577367359   -0.348748525388    1.263615486921
 H    4.438402490328    1.111849209833   -1.398261487991
 H   -0.279283893773   -2.180221948593    0.222642037449
 H   -2.482107234252   -2.207769887143    1.145632470832
 H    0.264094647337   -0.822688742302    1.912472026724
 H   -2.423332053812    2.526288063309   -0.488394784677
 H   -2.971911785682    0.240569120843    0.764918935915
 H   -0.181923397464    2.932225070924    0.504719062996
 H   -1.504626311767    3.184676010492    1.639129577865
 H   -0.545013938451    1.727724186336    1.752315537600
 H   -2.150273950053   -3.061862161941   -1.190670624619
 H   -2.760042576461   -1.469744824468   -1.655295094473
 H   -3.770323647344   -2.552509647169   -0.724397650788
