35

 C   -0.026275749724   -0.102707071958   -0.104097672017
 N   -0.140288326686    1.230092274242    0.478217356767
 C   -0.571541977558    2.293366435264   -0.363946595805
 C    1.235577523885   -0.794425136387    0.434089739075
 C    2.562983274322   -0.149060870863    0.007377003977
 C    2.862107938284   -0.354998740757   -1.482182082931
 C    3.714782379220   -0.701698109326    0.853431885482
 C   -1.304478963694   -0.920592077725    0.162183134627
 O   -1.519733036438   -1.088471016770    1.538848182518
 N   -1.244902489176   -2.216647444246   -0.470409339097
 C   -2.525390621822   -2.896328795566   -0.557547272279
 O   -1.859699993080    2.023744756543   -0.891054840127
 C   -0.576586002056    3.605638028458    0.405722508400
 H    0.054143016689    0.015395760225   -1.179908724165
 H   -0.677840335190    1.190850643277    1.322608154088
 H    0.129333310965    2.361557279192   -1.192406272291
 H    1.235638643962   -1.840141283625    0.138546966076
 H    1.180350326405   -0.775319364263    1.519715403798
 H    2.489497811261    0.917242678342    0.198099335271
 H    2.935484261639   -1.413456504082   -1.721577825941
 H    3.805861681321    0.108825670246   -1.754059266814
 H    2.097337898636    0.076085687789   -2.120300084939
 H    4.660716192434   -0.245090685240    0.576421955498
 H    3.816872581993   -1.776448693789    0.721774489859
 H    3.552664345090   -0.511695894377    1.910202091354
 H   -2.149908448246   -0.334072227622   -0.176781616170
 H   -0.934214996080   -1.770986904886    1.842522966737
 H   -0.834936960392   -2.140129954508   -1.379995038831
 H   -3.272308623395   -2.340441309328   -1.126407628555
 H   -2.386849106120   -3.864167596816   -1.025341610195
 H   -2.916540306731   -3.056743678961    0.438036586579
 H   -2.110572030327    2.710927571893   -1.493824184028
 H   -1.270535173719    3.546517623911    1.238139081731
 H    0.412707501952    3.826520496251    0.787761194766
 H   -0.890214541844    4.426578327966   -0.233124167421
