35

 C    0.190041158965   -0.100370296370   -0.446459263047
 N    1.515396653088    0.016151219044    0.160593932007
 C    2.179738332583   -1.160809452180    0.694974130124
 C   -0.828569812446   -0.587484751226    0.600658495601
 C   -2.244413314779   -0.963489876625    0.093141957631
 C   -3.282224862482    0.131194646586    0.362714229958
 C   -2.705503586733   -2.277854724694    0.735441023601
 C   -0.116052414243    1.265765129790   -1.095562666930
 O   -1.188708005943    1.065608193567   -1.970723505764
 N   -0.406671728813    2.380936534818   -0.233764040335
 C    0.712220920686    3.144671290964    0.291081483089
 O    3.426609279516   -0.776252248964    1.197228483760
 C    2.342765189081   -2.317853897601   -0.289797431546
 H    0.180952593842   -0.814791663168   -1.270628665011
 H    2.142939220743    0.451839103733   -0.488319916582
 H    1.628136555038   -1.502402457628    1.556749064120
 H   -0.402597811191   -1.473984716617    1.055209571646
 H   -0.888526910769    0.137490254339    1.408437856615
 H   -2.197865867870   -1.115607487716   -0.979237916388
 H   -3.020541904221    1.061481070154   -0.123695235955
 H   -4.258610531851   -0.165921542498   -0.008853088129
 H   -3.381275799616    0.316498454724    1.430298315731
 H   -3.696990191274   -2.555967191322    0.390429163690
 H   -2.745129609468   -2.191696511459    1.818922923825
 H   -2.030796601046   -3.094509990767    0.493793881004
 H    0.762917618183    1.549584071863   -1.673303243252
 H   -1.522876305946    1.922946686916   -2.200485828982
 H   -1.031405054350    2.118981109096    0.500442395118
 H    1.348422370021    2.589442021667    0.971964040776
 H    1.320656775551    3.501234060239   -0.533740534728
 H    0.323577853516    4.016033874124    0.805802457033
 H    4.049416933181   -0.694653048069    0.487356523639
 H    2.890113883539   -3.127506910905    0.180246142377
 H    2.895201194176   -1.995640798809   -1.171305067520
 H    1.386553969206   -2.703381509463   -0.623649965910
