35
leu_c28
C 0.2903001777325671 0.3531304559960196 -0.1199917837849769
N 1.472514231415696 0.40184331297005865 0.6975327367477417
C 2.645623910875489 -0.25748368145129863 0.40364017549027326
C -0.3185676827007396 -0.9702962178222807 -0.015387204232784796
C -1.5732714249193593 -1.3567483764246464 -0.6977464503405791
C -2.8479645656184176 -0.7516372730129466 -0.1984262337213331
C -1.7345484830041153 -2.8677215394591276 -0.292090139372794
C -0.5146899188398544 1.5736702345699238 0.19839633762471076
O -1.6440904588320389 1.6951510571731092 -0.6126278384091168
N 0.27876418687491034 2.766097030120474 -0.09488049625990176
C -0.3167416997210119 3.9400837962286888 0.4486003976597264
O 3.3084199800501257 0.2994097077527955 -0.7239823774024698
C 2.6965591909491047 -1.741516690218727 0.36049872654053966
H 0.6565336960438349 0.5026809002442528 -1.1922719931513368
H 1.2418040086992106 0.36583525729089544 1.7280645052900239
H 3.3782814222516957 0.030954378683445395 1.264056127520404
H 0.44218529777139437 -1.6918884225846953 -0.47519659790836305
H -0.381894707361946 -1.339976865955057 1.046610788299505
H -1.5269040251083672 -1.3848707398193578 -1.7930907615614216
H -3.4318153984203854 -0.2137940811084465 -0.9804055239918695
H -3.5878777251342533 -1.603005947993101 0.06109745673365004
H -2.7376043798936895 -0.2380699940862926 0.7582976285728236
H -2.649530835072751 -3.2768498862373723 -0.7146271825737075
H -0.8140761102787131 -3.41805607577005 -0.4558792582172638
H -1.8971899644607186 -2.812559543655978 0.808709836252477
H -0.7786305335982573 1.6655863719812476 1.2603665449989856
H -1.3246815794266225 1.706026858229326 -1.5693012304987166
H 1.2819071676886349 2.6700333576561066 0.0706627140312002
H 0.16799657900754766 4.147916674789199 1.4292738196319166
H -1.409017825097082 3.8920793368386524 0.5820482681671906
H -0.025503455470349653 4.799864356407719 -0.19655106294254182
H 3.20332774636059 -0.40602629273937507 -1.4286794160167589
H 2.630739130636778 -2.137303779770758 -0.698246663375034
H 2.063008476678374 -2.26749722267866 1.0728309265063514
H 3.756635569922778 -2.0750604561437545 0.6441338298508275