35

 C   -0.030468448969    0.034515899487    0.578505166187
 N   -0.644208831375   -0.953154886906   -0.315000935274
 C   -1.818894831396   -1.619734974082    0.127023436685
 C    1.344781020484   -0.431004783795    1.086971591378
 C    2.550291536460   -0.404245239220    0.129393084836
 C    2.425404627349   -1.352911115092   -1.068222640852
 C    3.822285920606   -0.734923194621    0.920208287946
 C   -0.002206018119    1.424059484818   -0.081144947472
 O    0.826820599271    2.312182046553    0.616661302186
 N   -1.327135449281    1.974319042373   -0.150997522465
 C   -1.528861742489    2.976947712583   -1.175619783924
 O   -2.898807191987   -0.698434680198    0.201098319662
 C   -2.171398399876   -2.764799161586   -0.809512528530
 H   -0.665108454117    0.132209397665    1.455826933804
 H   -0.758659341729   -0.615879000010   -1.249489759343
 H   -1.625614473013   -2.007028234732    1.122770153246
 H    1.596612621790    0.185141209709    1.943847459694
 H    1.216622390756   -1.445223365691    1.461209214623
 H    2.660664579910    0.608256970035   -0.246755881642
 H    3.341581408211   -1.342426937494   -1.652666806119
 H    2.249788117731   -2.374192313948   -0.741848640204
 H    1.611742886228   -1.081090084591   -1.728194840774
 H    4.701652428613   -0.684531209369    0.284704854706
 H    3.968125951749   -0.040849357721    1.742303081452
 H    3.773791121636   -1.738637162509    1.336525207372
 H    0.458167106224    1.335338609552   -1.065097378998
 H    0.306227927564    2.677351146531    1.321389616536
 H   -2.030409107935    1.265160331728   -0.173301715008
 H   -0.828986459663    3.790869513936   -1.031980722777
 H   -2.531720914015    3.379594226109   -1.093338296891
 H   -1.396484203619    2.596986498406   -2.191220879562
 H   -3.648923609262   -1.099685332399    0.619351118857
 H   -3.073089599301   -3.271734349996   -0.478050934316
 H   -1.363591801259   -3.485219127846   -0.847178098253
 H   -2.351370449187   -2.386618103564   -1.810959654726
