35

 C   -0.137721623352    0.290008092346    0.104101422287
 N    0.546569399675    1.315536976933   -0.674744424097
 C    1.452491657459    2.243905645838   -0.029940393412
 C   -1.294993228668   -0.227726586210   -0.770309674498
 C   -2.293646535812   -1.234236910665   -0.173010413744
 C   -3.305320469582   -1.639329980382   -1.251527647524
 C   -3.020831405388   -0.677875243668    1.054849853390
 C    0.843928819242   -0.784219063884    0.607305056912
 O    0.186830507535   -1.541042957350    1.598443209656
 N    1.375138367335   -1.561376965604   -0.476339542647
 C    2.512790320786   -2.400337131624   -0.154100694449
 O    1.941634719062    3.094924887277   -1.026185591750
 C    0.777392785004    3.040191542131    1.078610622381
 H   -0.556981530787    0.756608855915    0.984029042569
 H    1.042512026819    0.875618823778   -1.426926424958
 H    2.343904401633    1.767653131060    0.371336819866
 H   -0.873804459832   -0.644897013318   -1.682898888849
 H   -1.843204382365    0.655829142863   -1.083620025999
 H   -1.761350901175   -2.126617603311    0.137530613929
 H   -3.879904458842   -0.781247085405   -1.591574475995
 H   -2.812297302218   -2.069578863668   -2.119062483063
 H   -4.006922412690   -2.376181195364   -0.871533772785
 H   -3.765739542488   -1.383815021142    1.410884947383
 H   -3.536042178101    0.249842818106    0.814753079353
 H   -2.336844646266   -0.487263250664    1.872296935676
 H    1.686986290456   -0.277348366515    1.066290432394
 H    0.813948686146   -2.067297733336    2.074146675346
 H    0.648911499302   -2.112120011247   -0.889152761552
 H    2.308389764772   -3.166031236875    0.596673992278
 H    2.853277632991   -2.902666796050   -1.051221615957
 H    3.328568844204   -1.782994252849    0.205853927339
 H    1.194243338196    3.426046519013   -1.509512910192
 H    0.545469073159    2.430236209601    1.944659760877
 H   -0.144721826106    3.484045593695    0.715060755851
 H    1.445255001869    3.832693339393    1.395084744527
