35
leu_c7
C -0.4368975585038562 -0.46699017110207136 0.587994259576267
N -1.2920561190844804 -1.581020638905938 0.40568833047978037
C -1.9058857925567176 -1.9243640351267797 -0.7802807427322566
C 0.791942296825213 -0.5261826185277712 -0.2128060189768549
C 1.792346262021644 0.5864116443945889 -0.0649903599313998
C 3.005017178695077 0.15885708614833927 -0.9319389634712426
C 2.301569606391553 0.729262553295899 1.325350311503983
C -1.180423602269625 0.83877982526881 0.3800113611572245
O -2.292443672437175 0.8932866991984668 1.2516484547760434
N -0.29385833513064036 1.9174300801455395 0.7800196952064613
C -0.868248806174879 3.2155445533465192 0.4714583715134598
O -2.8269191228455828 -2.9827036883073625 -0.48125439418956967
C -1.0683967718581382 -2.376630114660577 -1.950205789665891
H -0.15337442971824405 -0.4717587557271939 1.6822135405639418
H -0.8718701110048894 -2.4108474634461605 0.8764348018386734
H -2.5727590192863996 -1.1136031951094432 -1.2040259464670573
H 0.5794719606809674 -0.6250322469001188 -1.3196616824031455
H 1.3416228558295105 -1.4743103747331285 0.032538396448753476
H 1.4255271851414701 1.5080246957564036 -0.5335891549287328
H 3.868747996921774 0.7381997481972998 -0.568251267803645
H 3.2175546399870036 -0.9046678903589164 -0.7295119973777722
H 2.8265706565458997 0.35868892400058716 -1.9887415532148194
H 1.6027782514108762 0.41370133800176784 2.1272082227650313
H 2.54018425201333 1.8032489952857618 1.5186732252556345
H 3.274163894893745 0.18540550471533654 1.4179410229551526
H -1.52746587412436 0.9481170476367982 -0.6481098161857939
H -2.104552579489484 0.30327224678555953 2.0380687302689173
H -0.2787093367129186 1.8790969504883999 1.8498551516746062
H -0.28516377998266346 3.653473666423217 -0.38685179705837813
H -0.6931416704266211 3.9383005852757123 1.313424019395004
H -1.945606053005482 3.1622470582198106 0.28794475894505267
H -3.3720548522684504 -2.70118046850861 0.3009089108388548
H -1.5916507605583443 -3.2670690849072064 -2.444248572334328
H -0.0826799775060877 -2.79222050650238 -1.6691453395662725
H -0.9233388124130599 -1.6127679497608447 -2.733768168855795