35

 C    0.107534889327   -0.301442285237    0.483083236911
 N   -0.626251457419   -1.553039801219    0.295327839198
 C   -1.189017671760   -1.880725129939   -1.005311564170
 C    1.372510551669   -0.199998352147   -0.395779247789
 C    2.419125739738    0.881591663878   -0.072066031231
 C    3.534928540463    0.832418615164   -1.122318077947
 C    3.011459914760    0.727222905869    1.332128642300
 C   -0.867828384252    0.887611940023    0.322253896498
 O   -2.165128828665    0.527698464717    0.744273968324
 N   -0.375118224470    2.037892521473    1.020176650985
 C   -1.138018206238    3.253772287191    0.790905009702
 O   -2.585568810750   -1.811381409289   -1.002054325943
 C   -0.830596866348   -3.295125423068   -1.423654314504
 H    0.410677045387   -0.315340697259    1.525835325851
 H   -0.122786305802   -2.320789797896    0.686878388099
 H   -0.809564550819   -1.184120527218   -1.746782083954
 H    1.069353421244   -0.078426522832   -1.432441131305
 H    1.867934899257   -1.168724210389   -0.341528120612
 H    1.943558771953    1.852521908838   -0.127532554103
 H    4.273322341707    1.607994965812   -0.942135506521
 H    4.051399924516   -0.124517887836   -1.104714849700
 H    3.142778424242    0.977671381298   -2.124855377373
 H    2.266302895117    0.868640133792    2.106454992253
 H    3.792147587649    1.462905044907    1.500296097870
 H    3.454415399953   -0.257566646391    1.465976116195
 H   -0.945616537641    1.161511172050   -0.724319123039
 H   -2.113303830366   -0.321376028839    1.170443802434
 H   -0.352363271053    1.838575594846    2.002144176290
 H   -1.077448139227    3.522915098829   -0.257998094711
 H   -0.696406157124    4.060996435795    1.363345404881
 H   -2.186885769260    3.165433002823    1.061576477171
 H   -2.849470677034   -0.950226070974   -0.701611347013
 H   -1.309534583133   -3.535165206515   -2.364425322295
 H   -1.184016364243   -3.999109703506   -0.676777944366
 H    0.242892554870   -3.407099312301   -1.537274147364
