35
leu_c24
C 0.34984816018386755 -0.28020012574529174 -0.13103718852017807
N 0.21138726350771606 0.6508012959886745 0.884473286990357
C 0.12965336967960933 2.0322763574998826 0.6809626355914611
C -0.7563855580154236 -0.4506323185492461 -1.1260895704920098
C -2.060428477298173 -0.9340080365945563 -0.5701029579891537
C -3.092903635478171 -1.1275203666737228 -1.6904952944720284
C -2.715167829270453 -0.07659968273535879 0.4666793777932666
C 1.7214320231266504 -0.37798947208013317 -0.787235844638109
O 1.6786917360945386 -1.3730926112195048 -1.7875223183385947
N 2.7475994401347537 -0.6185459822132102 0.15748466985579773
C 2.7189282470315974 -1.821898938351241 0.8922860498148191
O -0.8473842720909122 2.3968917179154863 -0.2630048661348933
C 1.4164488777141853 2.6283543483919094 0.12899466084476136
H 0.3162011345312164 -1.3150910296344176 0.43220157083573063
H 0.5736499890828265 0.378963413546645 1.8225570192374956
H -0.057783729412271057 2.6033777844694477 1.6470819468400497
H -0.44054219103233716 -1.1526368042060884 -1.944342362316673
H -0.9880277843845645 0.49969788475400406 -1.6709739730834599
H -1.9289714734382182 -1.9683616200321559 -0.12222233317597561
H -2.993518084297775 -0.34079606368538845 -2.444855603738234
H -2.9964692896586373 -2.1480579550051653 -2.1420808424421134
H -4.100268922443227 -1.054137103493259 -1.2367456321245938
H -2.021763777116831 0.12231039738701396 1.2787554371830947
H -3.6250250090011917 -0.633668478623281 0.8240097713378167
H -3.0286629758026633 0.8800656684566502 -0.015072962473906517
H 1.8871181653997229 0.5578166438601779 -1.342957511733394
H 1.408332558009076 -2.2499810886606895 -1.3878886447389451
H 3.5990240923044214 -0.0697606067365947 0.11941489532000821
H 1.8585710681047447 -1.9228211244702493 1.6029952298431356
H 2.7936807454441963 -2.7227764999279858 0.25181188591040626
H 3.6461325073272897 -1.8411897064182279 1.5326593545538505
H -0.5798799323134785 3.1701646441615696 -0.7965585216113685
H 1.5102445816236008 3.707459970988332 0.5086991642393447
H 2.305855629299818 2.0786311638703903 0.41824898678855693
H 1.3603833524543145 2.772954323765536 -0.9695830084053629