35

 C   -0.118768554586    0.307907604357   -0.472987243502
 N    0.312500416738   -0.822511970579   -1.312684013594
 C    0.980593835199   -2.010318858669   -0.831442321043
 C   -0.806054782653   -0.042538814648    0.854813621386
 C   -2.210283273373   -0.657130855430    0.719615754511
 C   -3.264105106380    0.384503768470    0.325948049386
 C   -2.611343787405   -1.351532332846    2.024199127971
 C    1.046174117283    1.303684549864   -0.275336511177
 O    1.775656160321    1.440342191631   -1.465123194699
 N    0.532349775939    2.573092579096    0.148191647308
 C    1.550120267540    3.524722144734    0.561617119899
 O    0.220035439323   -2.823572550899    0.031970861086
 C    2.287750726208   -1.739289762218   -0.107016400952
 H   -0.828427617768    0.837883143123   -1.101191017502
 H   -0.414685235499   -1.077698218055   -1.947642418076
 H    1.201915375245   -2.579381302465   -1.730373057871
 H   -0.879672990335    0.868202058453    1.438649146515
 H   -0.175042244307   -0.724437710327    1.410066503138
 H   -2.186160711800   -1.416478952018   -0.059447760474
 H   -3.350080740850    1.152734847508    1.089581991615
 H   -4.240391907644   -0.077406584227    0.209757243249
 H   -3.026735584672    0.879179976998   -0.610669756749
 H   -2.620870024108   -0.645312067307    2.850778610900
 H   -1.913501891542   -2.144722761157    2.271616756455
 H   -3.604360529154   -1.786356643204    1.951416121210
 H    1.705742763191    0.953627712580    0.511895602704
 H    1.654873136468    0.640038692622   -1.963811129680
 H    0.001161370865    2.965520540675   -0.606078453230
 H    1.069565456375    4.452136162574    0.851598650526
 H    2.070544559709    3.138798269901    1.431333462763
 H    2.285605877140    3.739292388291   -0.209867252467
 H   -0.540613935301   -3.155186943320   -0.424309641185
 H    2.112330558455   -1.282444963374    0.858227081143
 H    2.795037193372   -2.680842176347    0.063850399927
 H    2.929938209283   -1.093632629417   -0.692458246443
