35
leu_c3
C -0.2639966334576698 0.005954411200064716 -0.2691393328525766
N -0.15232285039396073 1.3235257314920366 0.269143990519256
C -0.6301058113360971 2.3847777091908213 -0.5506372299636274
C 0.7952411406667432 -0.838023913980868 0.43961614899601253
C 2.1684371041466797 -0.2783390821440341 0.1840021027894337
C 2.5233129992270573 -0.3647928081564336 -1.2894211495557388
C 3.1779935655860116 -1.1613219516355469 0.9145656320450671
C -1.6077863770243397 -0.5959305764654915 0.17569404976245373
O -1.5738282327287996 -0.6105504956355001 1.5674366045649082
N -1.6345147378843126 -1.930646616746938 -0.3396759878468327
C -2.8359543350522163 -2.6531880776281005 0.005456354478332486
O -1.8213562513809214 2.165924782971375 -1.1942273266471815
C -0.7650690414902933 3.609254985051371 0.3657001679213695
H -0.18566326762140986 -0.04144711822230398 -1.3553621794021469
H -0.35733583573273925 1.3734851834627106 1.2692320197750369
H 0.1455721238236173 2.7045129356347437 -1.3089245949969694
H 0.7302892598529562 -1.8960450158344375 0.1924358170859586
H 0.6019011329289623 -0.6679259928651582 1.540630284375111
H 2.274002418539597 0.7337077810541985 0.5805875857807828
H 2.592604629139138 -1.4390840570900874 -1.558106261062662
H 3.494988434068278 0.14008921642442249 -1.4379307105436898
H 1.7691818177002634 0.13495326811468614 -1.9080760499667153
H 4.1721595760648755 -0.6457525189444696 0.9502139751371995
H 3.2913482266472864 -2.1176033658003823 0.3840975193774492
H 2.8591283104559166 -1.350202607274099 1.9579570861968476
H -2.4457325572329345 0.038512911518044604 -0.16710382381981623
H -1.3819739204017805 -1.5216848844892512 1.9154355332447752
H -1.4215388189196443 -1.9937232532147415 -1.35439669808827
H -3.6561570750213317 -2.494773963613064 -0.7232869257391095
H -2.5818064183434073 -3.743925317915453 -0.04581040926451182
H -3.1330153468871305 -2.413136722554101 1.0448425904828074
H -1.8079051240221793 2.6050221171101096 -2.103773845487226
H -1.4044102939475556 3.276857377813762 1.2244161631549553
H 0.24315691792549535 3.7878642175719155 0.7904733625286282
H -1.1788447278941727 4.4736557116001245 -0.1660644629793225