35

 C   -0.147420856529   -0.165419010210    0.120674650798
 N   -1.196546910662   -1.180206842411    0.077977981820
 C   -2.317464565010   -1.017580354440    0.958806326089
 C    1.210679533409   -0.866039495928   -0.048269007585
 C    2.497987181131   -0.032669841115    0.080292595283
 C    3.703128766918   -0.901075968383   -0.298719071519
 C    2.686879752408    0.540071691090    1.488905877925
 C   -0.468542075840    0.896587376039   -0.956618885195
 O   -0.139440914758    0.473575456039   -2.243902008156
 N    0.194051445389    2.151462701722   -0.683068673917
 C   -0.300000597152    3.270255838597   -1.467095792787
 O   -2.016120821765   -1.256987725996    2.317179203200
 C   -3.424901203838   -1.986708094167    0.593387425846
 H   -0.153290547124    0.343872385640    1.086816899900
 H   -0.821963736918   -2.101187787607    0.183067331968
 H   -2.677359690395    0.001927081632    0.849633639322
 H    1.197749832434   -1.364508796761   -1.013045054588
 H    1.255864455375   -1.656666032507    0.699146535187
 H    2.453914769788    0.802476427166   -0.609572324491
 H    3.614667139914   -1.282092494357   -1.311954813084
 H    3.795918361601   -1.755066740624    0.367721443383
 H    4.627043867199   -0.333854299911   -0.238277678590
 H    1.892812651395    1.226004960406    1.762730167281
 H    2.713702293141   -0.253421851327    2.232161783679
 H    3.621728479525    1.087673430662    1.558142194784
 H   -1.549126475386    1.011592092210   -0.983032317548
 H    0.797534818095    0.569265904919   -2.356047765096
 H    0.140203582710    2.370424751054    0.291018284878
 H   -0.136588364455    3.078219192972   -2.518369831006
 H   -1.365248869757    3.459647754204   -1.323063434175
 H    0.247686420012    4.165540174138   -1.197485348019
 H   -1.397647272771   -0.612879664075    2.631714531359
 H   -3.741019134385   -1.824800172084   -0.429441995475
 H   -3.070516058359   -3.008110408642    0.691343114301
 H   -4.270324041576   -1.859234206547    1.258722583507
