35
leu_c14
C -0.23175965840338938 -0.21111170484093053 0.4094150886068957
N -0.8589264025252237 -1.0929785118937283 -0.4775719531692928
C -2.224370806368382 -1.175568039613353 -0.6637102911715398
C 1.186665499567288 0.07596208564182597 -0.12158739456339823
C 2.0068298630562666 -1.1872655357642312 -0.21257956859402247
C 2.3025082178009364 -1.6156770339673951 1.247047057791681
C 3.38149121012263 -0.8757003337867418 -0.7630329473525204
C -0.8667202205788955 1.1308392989672065 0.623236384283289
O -0.07405965008284619 1.7777783810496661 1.5953988371823713
N -0.9299457405903921 1.979907621095757 -0.5254818354331154
C -0.7204740526260208 3.3624142217246042 -0.22325082879944122
O -2.716609994703096 -0.0207482155918378 -1.2681000645013083
C -3.1242577854093683 -1.5437049985216564 0.4602906880703477
H -0.033949459778873675 -0.631981350594194 1.4301508213942546
H -0.3238537409348115 -1.1873391300244307 -1.3672388995362423
H -2.39541530045716 -2.004197216921737 -1.4409178563331841
H 1.6299872950198138 0.8048607282095913 0.570682171857161
H 1.1510026256239922 0.5078010742018343 -1.1147148670048987
H 1.5366809271341921 -1.995096337298342 -0.7670803470040092
H 2.7224449869443763 -0.7118717981640333 1.7486649480420318
H 3.144875830057539 -2.3610742695389884 1.233573995493804
H 1.427660387516325 -1.9983078386697737 1.760479178924192
H 3.410020811604925 -0.7864731530443969 -1.8536638183035008
H 4.160852027997839 -1.5775385610202433 -0.3760436682684281
H 3.653290312865195 0.1250667193538701 -0.32701874633066125
H -1.8902545126683048 1.082642340741862 1.053141054379594
H 0.5981752381372063 2.3687471051166233 1.2438461713698188
H -0.5694633696683616 1.6253352570410433 -1.4013497122707776
H -1.2352872211822987 3.5673280853272167 0.7551150549415961
H -1.2243521949275096 3.9912070559897397 -1.0216562830118185
H 0.3155169503832205 3.715951387514947 -0.20401599523615696
H -2.937578561219741 -0.12691140620075547 -2.225843267117899
H -2.9379995150459366 -1.0738298451346144 1.4155240740519768
H -3.142194426157959 -2.6463228644074626 0.6275502777263434
H -4.1905295705029975 -1.2921432169769633 0.18074253988691358