35

 C    0.140738779959   -0.190216062788    0.128023608020
 N    1.381546064891   -0.160900513135    0.903012078337
 C    2.629845488607   -0.363316747144    0.177694800342
 C   -0.784487104528   -1.302137659533    0.654016810013
 C   -2.074557327288   -1.618109927884   -0.138377205304
 C   -3.290718677498   -0.812809611712    0.332865471314
 C   -2.383295450593   -3.117661754555   -0.043633144654
 C   -0.514120593208    1.212464829984    0.111989940845
 O   -1.298741943174    1.375861468182   -1.032908448490
 N    0.488300228421    2.255040246397    0.163195923834
 C   -0.062242734672    3.599336993341    0.234817483408
 O    2.689732186245    0.492393532322   -0.917463024114
 C    2.858344253778   -1.775788978481   -0.344742765909
 H    0.383726013114   -0.414328008827   -0.904451719930
 H    1.341512364090   -0.764857197024    1.698736204034
 H    3.422398569730   -0.127065959039    0.885673617237
 H   -0.175603943466   -2.201885689359    0.676514022051
 H   -1.040275473489   -1.088655467516    1.692189991361
 H   -1.901241218851   -1.380300458797   -1.184005959441
 H   -3.148877723261    0.251496979824    0.209008681997
 H   -4.172165206643   -1.091086590837   -0.237436494610
 H   -3.502182515020   -1.014587516012    1.380740234369
 H   -3.288999260526   -3.365044259796   -0.588921306418
 H   -1.575230827240   -3.716389931326   -0.453794346896
 H   -2.528510938408   -3.421059356576    0.990673176896
 H   -1.213025514337    1.305439484820    0.940680742748
 H   -0.719642514395    1.400784785893   -1.785490873817
 H    1.062636358300    2.076699902095    0.962508438630
 H   -0.753880857643    3.732671951215    1.067945353347
 H   -0.592090445171    3.833957096334   -0.677264808228
 H    0.750058312732    4.307618020425    0.347128108979
 H    2.271461572781    1.319962362784   -0.698149603839
 H    2.077914533499   -2.065102252316   -1.039673888583
 H    2.879596989648   -2.488343190988    0.474876455833
 H    3.807736041804   -1.825325829963   -0.866135293070
