35
leu_c6
C -0.10969489969237535 0.4708675624108329 0.14236465930326261
N -0.7641692924354633 -0.25137846756931503 -0.833760220749716
C -1.838947079072679 -1.118835315580307 -0.530738619471409
C 1.404101428215603 0.4157659589931808 -0.17903739316925368
C 2.0038914163587798 -0.9235737639100785 -0.188644763556065
C 2.0578492836408375 -1.5008966597282842 1.2155655533708567
C 3.4895305565626753 -0.7109044585968622 -0.5664924440744824
C -0.35142040114258305 1.9299517801734691 0.35251149468060483
O 0.41231473750365893 2.3447960899716684 1.448388653230942
N -1.6611704615991347 2.441709391310781 0.3476168422676732
C -2.349929255150193 2.4067712923988154 -0.9022253449468371
O -3.0473866082806675 -0.5552050823106484 -0.1447147053134983
C -1.5671071732051252 -2.2623090994087085 0.40264683882780916
H -0.20732746390621531 -0.09526141035668441 1.1331211708895803
H -0.252097529009724 -0.46406822014917787 -1.7088779504554086
H -2.0929384279598113 -1.6107317670236412 -1.5295901363048612
H 1.4958926726025985 0.8685926463434808 -1.2200779050105295
H 1.9614251604264927 1.0841493124259693 0.530297781555303
H 1.5916047897120955 -1.64396907995387 -0.8908814879132652
H 3.120152637268397 -1.754577628723296 1.5212396186523631
H 1.529553118087286 -2.4641623860740536 1.29621686817898
H 1.708027993451026 -0.7277827996571568 1.9536603456861472
H 3.5730252236706517 -0.03211245113140061 -1.4319036826142202
H 4.0081207208868435 -1.6603165239495685 -0.7390583639604958
H 3.9480840154434156 -0.15072551198170495 0.2960661163387739
H 0.24571463029415044 2.4303081970782654 -0.5354500949145962
H -0.03782771353574296 1.95820138890833 2.2644823453381093
H -2.2403458684263717 2.336754176121858 1.173446247528595
H -1.9471943361979038 3.3127091401969064 -1.4936069395926816
H -2.1721166496793387 1.5515330915371268 -1.5471745453652566
H -3.450357065030011 2.651260472136194 -0.7390260913062523
H -3.745900251179454 -0.555434411203667 -0.8741331752638654
H -2.3376830861429063 -3.0675681956108845 0.18891355352741304
H -1.8099208032101401 -1.9425680484233399 1.4637450901793354
H -0.5657540192686817 -2.7109892186642863 0.3251106844269231