43
tyr_c10
N -1.2254725226427787 1.2466550224997999 -0.9766895808128566
C -1.1655691234713774 -0.12454955096226954 -0.6313242572294114
C -2.3755801249069144 -0.9445866041136722 -0.5966106898568712
O -3.004149210917668 -0.96233395603205 -1.860817764688627
N -2.283574543716791 -2.2595081006336684 -0.14940648621763383
C -0.25578972064929445 -0.333610506739517 0.5757899330155175
C 1.1164716757171373 0.21515189499812498 0.2114546354226838
C 1.7940341127517156 -0.44756680221387946 -0.9283990903560865
C 3.0919009819305185 -1.1621140422885787 -0.515889073826787
C 4.0388229506191 -0.2990233646039105 0.25322658868130266
C 3.33652585382485 0.76506670304754 1.0249200841939317
C 1.9808158503844988 0.19229833970010962 1.4486719614726387
O 5.034826851182875 0.22414490244541957 -0.5749681587057627
C -1.9390730409946912 2.222956699969638 -0.3092641020468803
C -2.0488544576347114 -2.6145362827948686 1.1770244375174055
O -1.428432404001436 3.524473789235626 -0.4550666240101462
C -3.4062481266048295 2.2390144613550182 -0.582733033359319
H -1.142571721437582 1.414753930057689 -2.02567176925386
H -0.5269219128382638 -0.5623041726515907 -1.4995748427279503
H -3.1122240495835802 -0.46267559147717474 0.16936704344735287
H -3.863520474494834 -1.4143755346196913 -1.7908524839733633
H -2.7230934017484674 -2.98927113049856 -0.7529779208283401
H -0.08122875303253525 -1.4408221304133826 0.6317574591763115
H -0.658412907401142 0.07423742541270878 1.484189925082295
H 1.0064217452746198 1.3127256224133326 -0.0561223706235383
H 1.2015724536226546 -1.2599009689868768 -1.400438987677283
H 2.058527021221616 0.27589191863626866 -1.753037224588422
H 3.5529118346762876 -1.5024347354793994 -1.4569631920290351
H 2.792340192114131 -2.0674873037072574 0.05084023203236288
H 4.5512472560902095 -0.9658072598109538 0.990017847082998
H 3.8875731829939046 1.0918500589803952 1.9436397063399862
H 3.127054609310759 1.648325586276336 0.3692258519434303
H 1.5507472859915001 0.7758165359720404 2.2739515992397834
H 2.130057403892838 -0.8739790935239508 1.7395157066423514
H 5.0950161681042925 1.2153805700165843 -0.4374927801063807
H -1.8768148779881229 2.064897230637639 0.8480407066595863
H -2.922684510735167 -3.3184837763790975 1.473978699530469
H -1.1733572474427572 -3.268858993307019 1.2923959038497381
H -2.00025020796604 -1.7926052970163149 1.8791299786988909
H -0.8221242272814661 3.652056420458408 -1.2036013453328893
H -3.836247762339339 1.2687784092745613 -0.7096313860188748
H -3.969885501267233 2.8904010858838243 0.1379062814688222
H -3.5047865986064983 2.751958590982713 -1.6040277940512164