43

 N   -2.093418754441    1.006241715345   -1.394135410589
 C   -0.957414775382    0.246161969279   -0.871980314630
 C   -1.335519875011   -1.035998920579   -0.094237732087
 O   -0.296784475585   -1.945989815846   -0.342288361500
 N   -2.589996369210   -1.583614178202   -0.571274515410
 C   -0.017590200303    1.209957778650   -0.123335194202
 C    1.426533215402    0.815374394394    0.258852815433
 C    2.256687371897    0.225245506981   -0.902068655947
 C    3.515906356023   -0.512188532618   -0.404154950898
 C    4.054978246098    0.100294417489    0.882909407925
 C    3.034369883959   -0.041415293802    2.019177005643
 C    1.576913612146   -0.053223656186    1.515720887593
 O    5.242961875826   -0.523443553313    1.312563191619
 C   -2.883393457552    1.835993659373   -0.551338145448
 C   -2.889454981376   -2.913938378922   -0.079321956087
 O   -3.431898722050    1.083595319726    0.526984300320
 C   -3.998178803307    2.482422987230   -1.360355738115
 H   -2.667682014743    0.404149463973   -1.948021789117
 H   -0.453026500555   -0.120415435318   -1.756598119180
 H   -1.383097616093   -0.837420853075    0.977888041495
 H   -0.300126751171   -2.628321107671    0.313320937709
 H   -3.314624574466   -0.961419831607   -0.275721998043
 H    0.055665574222    2.084652411491   -0.763811429964
 H   -0.508476370229    1.542037981630    0.788247438159
 H    1.881580890241    1.771049076794    0.518725004709
 H    2.539167931758    1.030014488251   -1.576711895039
 H    1.661841196169   -0.470938123401   -1.476507676832
 H    4.284452340312   -0.499681879577   -1.174321351213
 H    3.290172071679   -1.557415350518   -0.212407034481
 H    4.254869615983    1.156856823860    0.706830801690
 H    3.255517913312   -0.966268386568    2.541159526934
 H    3.184299256211    0.762866136788    2.733298921178
 H    0.920057636510    0.307268012355    2.302897695501
 H    1.274333210014   -1.067691700780    1.296132743798
 H    5.918789220498   -0.391661319305    0.662063615187
 H   -2.253070008650    2.610138458043   -0.131684731206
 H   -2.243344994395   -3.643668295110   -0.549995584114
 H   -2.792431355839   -3.016024109864    1.006559186346
 H   -3.909758374466   -3.164549928504   -0.343448488126
 H   -3.870572280868    1.662088078092    1.136674730041
 H   -4.646152514325    1.721235382265   -1.783712005268
 H   -3.585382395330    3.078470037981   -2.165085137938
 H   -4.606186509715    3.126651423418   -0.731668224698
