43
tyr_c23
N -1.151126673195118 1.1362761630743026 0.03804695930158829
C -1.1888477393525554 0.07367812370273547 -0.8704523859595569
C -1.9495057729283418 -1.170533909354959 -0.5428886319475419
O -3.3324550287677632 -0.9564856083767559 -0.40202373101260325
N -1.5492495758442664 -1.807789123692008 0.7073211589480656
C 0.04349391305205144 -0.11315676468224921 -1.7095149167593
C 1.3411719834105151 -0.2728431378707145 -1.049092773854288
C 1.5699881826985105 -1.3627731950911304 -0.09338723742986876
C 3.075218869314141 -1.5268745995747879 0.13175984696033205
C 3.7977716892364883 -0.26468810475785537 0.41983196698537556
C 3.3921850276064287 0.904354365758996 -0.44317456216311124
C 1.8698920990138919 1.0334610830923745 -0.4719823653573736
O 3.736374945240165 0.10045216902711557 1.774524458806227
C -2.2967781596702452 1.890267659096479 0.38444500941154297
C -2.71694188680969 -2.2847285159020254 1.4667310175775623
O -2.9444692954711966 1.5012140749849847 1.546809176186837
C -1.9349650259624878 3.3845665548301325 0.5225397711715086
H -0.7512518310146106 0.7649147624572036 0.9579014354811236
H -1.9195034007631024 0.5181725921363128 -1.7246058041467198
H -1.8643100922696878 -1.9437856954226995 -1.3570849660114719
H -3.8141956478793326 -1.2756660063197534 -1.2031665409153611
H -1.0051750190252662 -2.6969623255412896 0.48699487784306295
H 0.14417906985885423 0.7428577070080381 -2.4319359578898547
H -0.1573053559460587 -1.0117161198679512 -2.345478409860936
H 2.0764609935708607 -0.46995833978220175 -1.9064149457466608
H 1.1487990716455516 -1.1269365897795547 0.9003909117926767
H 1.2566662647379003 -2.3669234505754204 -0.47520720647783576
H 3.137375971807696 -2.167626060279004 1.0552748857250847
H 3.4676664445647365 -2.071533586806974 -0.7272030044786145
H 4.875754418315705 -0.44015824412821825 0.2173887971401179
H 3.8508023597420102 1.819628973822006 -0.006359402786519773
H 3.7643114182959883 0.7239190904571128 -1.4614006217671347
H 1.6785154859276354 1.8511476945114924 -1.2115248481629441
H 1.5253905887346717 1.2460773358231936 0.5371701556765776
H 4.18867855617447 1.0021341777399257 1.8108616684418715
H -3.031536035818102 1.870947489791829 -0.44503791642419205
H -3.091376242184794 -3.150570766399833 0.8595907545216492
H -2.355480242714606 -2.7338398061048017 2.40469827095717
H -3.4721065724626183 -1.5081157025829206 1.5934161373422362
H -3.750225744127558 0.9812486796596744 1.4404772252859186
H -2.887979486828958 3.915721476875702 0.6352950299713415
H -1.4684805285341251 3.70368596256091 -0.42501813048352394
H -1.3074319953778186 3.5589395164825968 1.4114848441075336