43
tyr_c32
N -1.9745896540040786 1.4143517103613708 -0.8739099585138255
C -1.1205083065496941 0.2197279217156339 -0.6749629970693986
C -1.9461038606430772 -0.8203457449951654 -0.06908992996229793
O -2.5852612838619304 -0.5820831223267477 1.1143539835042504
N -1.2750408274870384 -2.116883725540422 0.13744552590640588
C 0.09707344906896036 0.7177234683054384 -0.03332193806831952
C 1.228870682522536 -0.2113291337830293 0.24743300813905966
C 2.3046195448987237 0.673119985828696 0.9186063555134409
C 3.459278134805211 -0.173274012179641 1.3341288093032666
C 4.062741551241194 -0.8181156042455978 0.11138180657059556
C 3.028552829015877 -1.6122526740288 -0.6540142881623432
C 1.8311533425899742 -0.7796870178538946 -1.0049739681187941
O 4.593994066090367 0.21098229313118017 -0.6533357864432214
C -2.4121606264076516 2.06754393914292 0.28751343185607225
C -2.4032277628340353 -3.0558248095657934 0.34004569285421316
O -1.6469200684782306 3.262207800312128 0.5248198804834492
C -3.847292764036569 2.569892682856094 0.10993274380794668
H -1.5166867968499684 2.0814738336898304 -1.534510195173821
H -0.886902164631329 -0.09107811320735013 -1.7347198751188846
H -2.749695552801431 -1.0840290506132648 -0.8319411336200834
H -3.5786136887271818 -0.4898606998195422 0.9913911355246536
H -0.9111082548475578 -2.038237145988524 1.1406609578074507
H -0.1735350793535891 1.1607134780172546 0.9880401064359675
H 0.49573079327813707 1.5719985736786364 -0.6109963832951708
H 1.0748062121830546 -1.0065411449345314 0.9743770906636366
H 2.620836482520909 1.4195665876196024 0.1962369268510596
H 1.7714548031873167 1.1297255865611033 1.7917585760665178
H 4.258968692997005 0.5310206788149892 1.713573762258876
H 3.257655481149126 -0.8872189022702002 2.13012758274929
H 4.864347920404555 -1.507905457982634 0.40819695929956706
H 3.549529894010969 -1.9993725206775217 -1.5634683376290663
H 2.788541331046879 -2.514105001473195 -0.05333815741540421
H 1.0920242140676677 -1.5068614380286598 -1.453898190181779
H 2.1283414450681826 -0.029812826545410887 -1.7478561608163041
H 5.429160077093535 0.48798171221974934 -0.2227884328475838
H -2.3758885944395054 1.5710481713081446 1.2441129528192658
H -3.1637827182360216 -2.8681306581809167 -0.44241239270466387
H -2.04390792333271 -4.085780137254099 0.4047027380603274
H -2.908727554335043 -2.7922388875240958 1.3091758774090279
H -1.7220330740702312 3.882576729189958 -0.21543987228653916
H -3.9237069877853763 3.663694326137413 0.3286267791505706
H -4.219629744883425 2.374649725903011 -0.9262516284282357
H -4.552357658644369 2.0609686242262284 0.7933314831831823