43
tyr_c3
N -2.2231964617514945 -1.2984374220169788 -0.4446280371171634
C -1.339234936805489 -0.14846439744040937 -0.1345641604470246
C -1.9920878121950236 0.9923045681267304 -0.8944336736939944
O -2.034763711780523 0.8123273638674958 -2.2489953725618315
N -1.5318871147966218 2.301474789705615 -0.5158868049268466
C -0.012484382994582452 -0.5233456448747087 -0.6809476095543635
C 1.1093677351619282 0.4373207213325935 -0.5062215234016035
C 1.371560413511528 0.6666296824233507 0.9645215433065747
C 2.6210074526781755 1.4958397850339766 1.1641954847044589
C 3.7790597271752895 0.641329021542749 0.6714295734952213
C 3.598794378900751 0.4840407553971501 -0.8242431663255375
C 2.3208480266888696 -0.18681193370463164 -1.1858747033204025
O 3.719848479057499 -0.606453363491619 1.3159013169882805
C -1.93229765921929 -2.4494265868047544 0.3468049016545061
C -1.85024971101828 2.6386533112126394 0.8373753617338342
O -2.016370167669351 -2.1369011059340717 1.710900609605168
C -3.0363241520285587 -3.472938718536867 0.0333149319297368
H -3.207259864555699 -1.0423019721704037 -0.3451620085087481
H -1.2953108926003754 0.0038173362855522647 0.9448619311858435
H -3.094928654911978 0.9960804345713142 -0.5778192663398276
H -1.2596233837351367 1.190715621162109 -2.697546385198259
H -2.020987897402798 2.983829531238026 -1.1452746662521267
H -0.17240195581320475 -0.7679347646568804 -1.7710347513930729
H 0.3091248253990431 -1.4854438502736342 -0.21147602913332497
H 0.9465350593330764 1.431769676492701 -0.9584743286741397
H 0.5164228500589442 1.1519926750197014 1.4246379749275224
H 1.549756084282329 -0.3325539986233703 1.4381939487188158
H 2.7072698356670415 1.7476174197660135 2.2164032047487887
H 2.5832830284117008 2.3999773872910493 0.5304747007666413
H 4.743576053318567 1.1156442278585834 0.8762164385410248
H 3.729830741851475 1.4642123886593585 -1.2940498594053753
H 4.437473252505506 -0.187322056924971 -1.1545249654364529
H 2.1691017381370274 -0.16528387910181894 -2.266796820474897
H 2.364728990603972 -1.2428707743675982 -0.8421602126967485
H 3.981282987644116 -1.3527646806321472 0.7248063973889134
H -1.0012333315945408 -2.9669274301563138 0.125732294008601
H -0.9392160635844023 3.026753012905229 1.3334947503750803
H -2.2361708957038275 1.7830428432554732 1.423471501981256
H -2.6352208139803524 3.4439329161508327 0.9012709136612798
H -2.8666594749068763 -1.6497622126141636 1.8492202725081501
H -2.81963420570335 -3.935630439147937 -0.9484304773146122
H -4.015491494169033 -2.96938113206827 0.016031329877854848
H -3.025836621466477 -4.28834910575682 0.7992854400687053