43
tyr_c29
N -1.836345829538655 -0.2502462265557373 0.8328178489823215
C -1.0627235768662084 0.42296991249220717 -0.14919830236713816
C -1.947494746996591 0.8657975976899878 -1.3225654059268812
O -1.1673057223399306 1.5354684691739924 -2.268622774433496
N -2.996898530901561 1.7469589080786585 -0.8796358136604375
C 0.0790788792690981 -0.3570781662509811 -0.6954272559974353
C 1.1090706387840443 -0.8037998262049155 0.29783165757920216
C 2.197893767274848 -1.5927574300864604 -0.4159059723041363
C 3.562517835445686 -1.3465946775578919 0.1543143018592946
C 4.001746915871046 0.08142840880260757 0.11462029373050908
C 2.771096091446439 0.9512857038131467 -0.01536679287108384
C 1.745358545218298 0.3897438349834068 0.9609011873031935
O 4.671938269398113 0.4328682881843612 1.2959691999926894
C -2.4781469384409873 -1.4592380298326364 0.4519578904538714
C -2.465898339400654 2.9609164893276443 -0.31851619008827164
O -3.6234775327832263 -1.214240600641764 -0.3101659440880438
C -3.010432949394804 -2.1091229847721626 1.7430411185941597
H -2.364358789865977 0.32992971365244805 1.4859317823144
H -0.6871973997465851 1.3653401563316387 0.29263958927750794
H -2.333121781288918 -0.029490732893499388 -1.8084427321116001
H -0.4401953396760822 2.0439411813470745 -1.8573586710841534
H -3.5637716998148106 1.9866872341162831 -1.7233966238975433
H -0.2338213665649976 -1.265873958404098 -1.2581793985810579
H 0.5530724475035677 0.29350865690757477 -1.488014748357122
H 0.6363116238963265 -1.4175782520689784 1.0950506282762675
H 2.1478588177465867 -1.4836440957993697 -1.5115746347092667
H 1.9697723542715746 -2.6803904021954077 -0.2101653659940374
H 4.271017792135435 -1.9561688721270343 -0.4577217820905935
H 3.5705294283904294 -1.757024737128896 1.1862042830500432
H 4.7043692649404845 0.2585475641917376 -0.7258256366771668
H 2.977306951587 2.0204916215743185 0.18682399449690532
H 2.43335516956431 0.86960024438169 -1.0609059977815731
H 0.9967629397849724 1.136806324390473 1.2702471962326334
H 2.3107592836254667 0.04325504152765893 1.8754392188760751
H 5.437755345532259 1.0254136227576058 1.0920721874974335
H -1.8011957810232437 -2.1984851614250185 0.003054544226124255
H -1.6525084814270878 3.394564885659095 -0.9126826132183687
H -3.2765233569989367 3.734165672652725 -0.280039394381703
H -2.1313394794133935 2.7836588845243466 0.7409705630427299
H -3.681730773982682 -1.9296486402310962 -0.9882218314130139
H -4.044664651941779 -1.802794662193476 1.940461200633345
H -2.346796840501096 -1.7986540171267433 2.5815562826323357
H -3.001622452777764 -3.2205169430644673 1.6477913417058694