43

 N   -1.830951079952    1.108305242190    1.372539907923
 C   -0.896680235816    0.549208597124    0.405669597337
 C   -1.416367326635   -0.655284866657   -0.403792932681
 O   -2.250151913293   -0.139786164796   -1.439289952986
 N   -2.064799120491   -1.616562712072    0.432754318179
 C    0.385573000537    0.199905725121    1.181236466702
 C    1.621060882798   -0.196555544242    0.360190609689
 C    2.010983807464    0.869883630000   -0.687731215054
 C    3.511536100451    0.859236627093   -1.042423659617
 C    4.119626596863   -0.529525433157   -0.930267307079
 C    4.014307589659   -1.051310259424    0.515075026859
 C    2.813947502192   -0.470033256340    1.284354737783
 O    3.425336605229   -1.353342035893   -1.844362953048
 C   -3.054916403481    1.765347654642    0.990219332365
 C   -2.360983432382   -2.894927710960   -0.181412887532
 O   -4.043595078088    0.910925541428    0.464463331635
 C   -2.814108286682    2.949767537425    0.062894729696
 H   -2.007167254812    0.453823647816    2.108104354057
 H   -0.668596484924    1.322224937847   -0.315383754145
 H   -0.577535262357   -1.145857860142   -0.879935797051
 H   -2.417690008381   -0.811700170970   -2.085612858768
 H   -2.895065375439   -1.214128331663    0.820888477187
 H    0.628841916883    1.072059586685    1.780686753746
 H    0.154000008737   -0.603425208671    1.876336422721
 H    1.418791255098   -1.122478715414   -0.167142452661
 H    1.428722909130    0.719929429042   -1.589852994289
 H    1.753734144505    1.858401558934   -0.314695860457
 H    3.661327767540    1.240883907537   -2.046468269398
 H    4.059375311585    1.516041461113   -0.371348485790
 H    5.167250174807   -0.489073411347   -1.221157159446
 H    4.932475765238   -0.818973448866    1.047910164361
 H    3.945745274664   -2.136516432434    0.484742321654
 H    3.104381221001    0.459602194472    1.769978059593
 H    2.527803543747   -1.150556021756    2.080929290650
 H    3.805176922350   -2.220850362261   -1.836825895089
 H   -3.484197538841    2.131720987947    1.912983609134
 H   -2.810037083109   -3.549757446373    0.555233901971
 H   -3.044423048132   -2.839204565454   -1.031353593911
 H   -1.441182712158   -3.360853639723   -0.518659572019
 H   -3.765716799870    0.633089822619   -0.402096266081
 H   -2.076399806845    3.621895875112    0.486229123000
 H   -2.471264166171    2.627630695058   -0.914015187667
 H   -3.744216649734    3.489445502368   -0.073640856126
