43
tyr_c34
N -1.8352465420239474 -0.029852489431353674 -1.4480649310127847
C -0.9781749489711602 -0.27242511892207083 -0.3935373756073105
C -1.650548528579004 -0.22862609702134606 0.9468586433475129
O -2.558834437651633 -1.3207392256046766 1.0663008247014536
N -2.430117480705546 0.9680089935966185 1.1755668678962397
C 0.24671610128611224 0.602374115934393 -0.49951145973285976
C 1.2624125712925638 0.3882001327402848 0.585829459641095
C 2.451566948151955 1.2807123804481089 0.4325871097147424
C 3.274464339224572 0.8082910999965687 -0.7413502640432933
C 4.087083464688741 -0.3839787921010896 -0.2623856738367052
C 3.2398956265844943 -1.172389543210286 0.6908663450282249
C 1.764527195392068 -1.0557741164488041 0.4078496571382365
O 5.237075491847116 0.11397229052004795 0.3351459358534083
C -2.913791841782522 -0.71820353000321 -1.9002535150196418
C -1.7698019577780604 2.201103625306687 1.2092534340088632
O -2.520850716292375 -2.0382301135266405 -2.3268388436787086
C -4.169325702875012 -0.8942520690733666 -1.1445712868456388
H -1.50374676161023 0.7181518386096004 -2.114038090834538
H -0.502236414244829 -1.335771412517106 -0.5002959113795732
H -0.967764718060544 -0.34974132223432247 1.803778645816855
H -2.195906193701417 -2.0171318224281523 1.633576686671525
H -3.0813838232715693 0.8296288321420346 1.9593483422754825
H 0.03533366466836655 1.6820606888667782 -0.5703491076733178
H 0.7017576395785297 0.3310948975031979 -1.4981337745490213
H 0.8465304936491221 0.4214406307257288 1.5883062679115323
H 2.2058369449164856 2.3452436248435036 0.25217015620308125
H 3.0465715629450885 1.1936625928668765 1.3773266345642672
H 4.0005942799548375 1.6377098915957646 -0.9609212369981652
H 2.6953284919625315 0.5854461398545979 -1.6347179877816491
H 4.408266347340271 -0.9711465377544074 -1.152969317575078
H 3.492313237434665 -2.2482239486573508 0.5371620177925253
H 3.461320150371237 -0.9488151478979648 1.763894499679224
H 1.2513604651400159 -1.7389719375569814 1.1216767192563595
H 1.6041088201622373 -1.3971577423558335 -0.6346645453725754
H 5.077777692384839 0.9603393340967534 0.8295744864817204
H -3.2166515505231583 -0.26919008776570474 -2.917024125927682
H -2.363923905215014 2.874418436541225 1.93155815677924
H -0.7634510476950411 2.12084425822556 1.6151095250033194
H -1.8531365657640455 2.7756379061595107 0.25664312479124457
H -3.319743255990571 -2.5807487315051674 -2.419009297492879
H -5.030730212140944 -0.802513003115574 -1.9030526276602664
H -4.334538294885634 -1.9454593306827077 -0.7864559839628974
H -4.430936629213421 -0.11899959075978735 -0.41154888463176165