43

 N   -1.338549406250   -1.033726554904    0.829037630329
 C   -1.103588484396    0.410751881795    0.794372095974
 C   -2.387886641217    1.264904399921    0.743781447693
 O   -2.902412114348    1.219339814751   -0.561250227520
 N   -2.245601177620    2.649420734259    1.121262199525
 C   -0.078799052580    0.804998348654   -0.290148391313
 C    1.388958052617    0.755731715178    0.166784797000
 C    2.331647339831    1.299494269720   -0.940212675266
 C    2.976359121696    0.176532113514   -1.753738832290
 C    3.890464767764   -0.686988589364   -0.880657854021
 C    3.365395489465   -0.769061865447    0.563383028973
 C    1.842212218000   -0.651925807662    0.612147936447
 O    3.945885376405   -1.955452819878   -1.493185176711
 C   -2.342094958964   -1.652540035048   -0.028217141440
 C   -2.174412477773    2.932020577971    2.540782409961
 O   -2.112853880994   -1.378118486812   -1.371149923417
 C   -2.275433962788   -3.157513849020    0.154754610487
 H   -1.503316197776   -1.325500510342    1.771347633567
 H   -0.659730312776    0.639865276229    1.758939260098
 H   -3.105866129435    0.830536877242    1.436677032820
 H   -3.576046187562    1.884296588247   -0.630822727059
 H   -1.487285019214    3.077759994029    0.628629446500
 H   -0.214948899270    0.165909520227   -1.151450030199
 H   -0.282376398502    1.818078351619   -0.626846580998
 H    1.483733229599    1.419692018287    1.026515817677
 H    3.116932207371    1.902534067633   -0.489032414478
 H    1.787075142251    1.967166372268   -1.600968244377
 H    2.209932022214   -0.468090017510   -2.170975080411
 H    3.537077323698    0.575778246926   -2.592738192134
 H    4.890077512767   -0.254508471384   -0.867041548391
 H    3.694442310189   -1.704991808579    1.008635648349
 H    3.812131153556    0.026061408837    1.157355886091
 H    1.404336505433   -1.406359792814   -0.030679089599
 H    1.477898951492   -0.863790797505    1.611533395380
 H    4.570060556800   -2.500369109879   -1.034555238438
 H   -3.346039072482   -1.308691940317    0.226492152184
 H   -1.319669406241    2.487371856068    3.050702640746
 H   -3.076040492108    2.575374204444    3.026402979841
 H   -2.127066856875    4.004679214444    2.683643642502
 H   -2.427093384104   -0.499667153424   -1.548794038758
 H   -2.450467597952   -3.437197525348    1.189891162732
 H   -3.027415361042   -3.635967498071   -0.461790445850
 H   -1.296719339573   -3.513760172511   -0.142263929246
