43
tyr_c42
N -1.3042477828596362 -0.15272017539590846 0.9030786707739806
C -1.03868316352038 0.2930829633015716 -0.36834641397531676
C -2.299656345902212 0.7389797592915778 -1.109943693117089
O -1.9205166517696606 1.079428953782761 -2.4462894060276854
N -2.8849916992572315 1.9420983764043136 -0.5986150351720261
C -0.02339952756847641 -0.306337922982477 -1.2560325759156414
C 1.3896151380221367 -0.2924388590603671 -0.7914715973042485
C 1.6890470855949695 -1.001917538932825 0.48267065874190607
C 3.2108586701349813 -1.2408674974318483 0.500303660198535
C 3.8965238405809304 0.08939705455782947 0.4486664548449967
C 3.5067002121193442 0.8791739261812959 -0.7932414946867421
C 1.9881032906560778 1.094027364725623 -0.6914807808704334
O 3.5845162263677706 0.8961070462420949 1.5476002458911153
C -2.0930289358917307 -1.2368808582591833 1.2522999145323233
C -3.3823151468990327 1.9681758357172399 0.7215633244305771
O -3.4462730835257114 -1.1881493082340604 0.8874943580861062
C -1.6162591810151694 -2.59974114822866 0.8387435064132267
H -0.7574462555327384 0.2885549151118216 1.6888482659876183
H -0.5617329917674398 1.3736626728036194 -0.17264440588562724
H -3.0645380326111535 -0.0334111608736227 -1.196405973989155
H -2.759077012664279 1.229066212359511 -2.935793904945581
H -2.3492562518846194 2.78182334935534 -0.8270530689381117
H -0.042763916328573716 0.3173706763209889 -2.231203297651527
H -0.21939107639111954 -1.3258169408927807 -1.6375617109232286
H 1.9798746699698395 -0.8393508345412899 -1.5918652713066956
H 1.1716320277111694 -1.9758467674487297 0.5824878358167791
H 1.517727345928048 -0.3197763608790932 1.3392169921227088
H 3.438700315823706 -1.7715561516078855 -0.4440608103770249
H 3.521146403849313 -1.7756213415087974 1.3953368306178282
H 5.006737621016939 -0.05816332619731583 0.436687618798733
H 3.974947149441702 1.8760563300408402 -0.7347980410645812
H 3.7441694883262473 0.3158103172523788 -1.708959140072437
H 1.6203325877586603 1.7431403730478294 -1.4870040692202142
H 1.829277911175464 1.5246231355540403 0.32405781072530215
H 3.822264808259357 1.8485759646518198 1.344966590782725
H -2.123952938973879 -1.273350489815764 2.397633554643869
H -4.353069526814261 1.391930142719273 0.7759316412294706
H -3.631451844743349 3.0153622478671718 1.0338292507586815
H -2.7493269889555236 1.5645256802906178 1.508740715683398
H -3.7077797328385236 -1.9039022768494933 0.2915612154931139
H -0.7845220425545099 -2.9216766814454185 1.501439259623136
H -2.46816878968276 -3.3399811648330684 1.023239578464158
H -1.3103258727849059 -2.6934664921613405 -0.20362726321699323