43
tyr_c21
N -1.2225262341117025 0.5049166892369401 -1.1920809800636196
C -1.1248864071732816 -0.3007974839843412 -0.08772600251567232
C -1.4979515304798916 0.22191899244541044 1.277392626495381
O -1.3528994424458483 -0.8502510650129096 2.185321061977626
N -2.8104195511012473 0.7286170895145406 1.400977176311891
C 0.038901002069845356 -1.2539685455334595 -0.031001976511373812
C 1.4121587070603985 -0.8119283696956665 -0.05212144238150386
C 1.8809315119554106 -0.03755307339188491 -1.257988119873258
C 3.374361587886079 -0.3179979725311771 -1.3999920468557534
C 4.114616160939156 0.14376624718391173 -0.18662343777318438
C 3.4838820384753117 -0.21376206480202875 1.1081071244166503
C 1.9736814682627866 -0.1335868821973298 1.1577106524435579
O 4.424549107243781 1.5079322521741343 -0.21127447320512485
C -2.419120522196505 0.8541564225152587 -1.860189276379859
C -3.2063612722475927 0.5734204531611816 2.821941518944168
O -3.4939264311528926 1.2455364576017756 -1.0738996982560807
C -2.9671751900574153 -0.4316107932553331 -2.5737637002519196
H -0.43216447465750263 0.9449400817161026 -1.643703964238998
H -1.9980237096588827 -1.08306658961396 -0.21975170215276504
H -0.8112648581769822 1.0608459326899506 1.5820688582185665
H -2.010444027490233 -1.542324371875059 1.871653458536451
H -2.7922893427396502 1.8046798891507119 1.326236489458032
H -0.10235663781171796 -1.9454882752291025 -0.9155812094644706
H -0.1498894643760475 -1.9188186794350657 0.84330450125225
H 2.0346247996482183 -1.766930521315614 -0.10667951846180146
H 1.8371674953230748 1.0520740435591638 -1.135381754750253
H 1.4242884876210553 -0.4041555466160535 -2.1881708130359647
H 3.8104901607529413 0.23427263286911912 -2.265289122417886
H 3.5438557429709436 -1.3807258144800065 -1.5506591221530148
H 5.114767748241311 -0.38161755471001985 -0.22877388909477225
H 3.9081971545893155 0.4475114732311093 1.9068531264839226
H 3.8148398996801753 -1.2537346772380698 1.3938354265747745
H 1.6657220330931282 0.9208705486643334 1.2825045267428357
H 1.7204712399250084 -0.7686847188429209 2.0616259066683345
H 4.559169237354085 1.776599124146909 0.7485157615133236
H -2.2877107142822255 1.6623465962112325 -2.62440994528461
H -2.8683890335063507 1.4816583645477635 3.406562264324362
H -4.309468751184125 0.5596466405285325 2.9346875090310016
H -2.7572265208021838 -0.31495886484877456 3.2849322106196936
H -4.262899883390146 1.5051280208109663 -1.6097859083528807
H -3.223512213281598 -1.1804417644595817 -1.8204153735995077
H -3.8668022305468948 -0.1070254566920586 -3.1018438264691817
H -2.1689671402217554 -0.8314088661985319 -3.2571228964691414