43
tyr_c28
N -1.7105260945377805 -0.23708824388676203 1.0968331420267632
C -1.0360322043523849 0.595365838376932 0.18911453650281315
C -1.8804008691041147 1.5724761999986805 -0.60003881921815
O -2.8531721632791687 0.9539408917688008 -1.3438728938553992
N -2.256253952166682 2.683652478442779 0.18276945530966776
C 0.029959606458051274 -0.053179014789985934 -0.6304299325874844
C 1.1657482498440297 -0.6637600258937544 0.1445663222019779
C 1.8895678081556944 0.3627732740281221 0.9269356127798928
C 3.3030398738441535 0.6058023819543359 0.4225660159860439
C 4.065408032022354 -0.6735966954900946 0.4678728004355005
C 3.4145752386583186 -1.7013731887015173 -0.3864428911915492
C 2.026718781970086 -1.4179764997130382 -0.8315496221007286
O 5.350399227638737 -0.41426027163968954 -0.029798831126177067
C -2.705285905451416 -1.127242022054607 0.6757252751761287
C -3.556600697114426 3.2331416927295855 -0.04826083381437135
O -3.1119947851624197 -1.8383196529824872 1.8520174446022704
C -2.321955079409074 -2.211595644742107 -0.29288114183205777
H -1.0117826086224981 -0.748514044987587 1.6771608353250158
H -0.44388130599896664 1.3197395403250016 0.8765297754038878
H -1.148871175036347 1.974463241958119 -1.383832809244278
H -2.982237318780086 1.297567170325697 -2.244361633275347
H -1.5521723579861584 3.4436889421441013 0.13728069448113
H -0.34380049928696105 -0.8423610602920449 -1.32524539579663
H 0.4994677449238946 0.7205815554483591 -1.3074800955287518
H 0.7113522726121444 -1.4457986071374218 0.8308365223945979
H 2.034044040677177 -0.03678925524995956 1.974470865568919
H 1.4285207047558879 1.344532521514306 1.0262329591810333
H 3.2717808871949474 1.0097848615570508 -0.6128661091924279
H 3.8019317317395105 1.3411966898633993 1.086204863743004
H 4.217200008265614 -1.001265889857357 1.5173524387387483
H 3.4999610010293707 -2.681277500506525 0.16463173891380356
H 4.035954334009466 -1.8411200392239655 -1.3126774613240162
H 1.52977511536088 -2.4175424617763976 -0.9967675357962955
H 1.9522958861367399 -0.9102188156089993 -1.8360043267167325
H 5.457208624985258 0.5259292869673271 -0.3129765444843324
H -3.6585585459048797 -0.7093457044626501 0.3034983829860777
H -3.9308734461027877 3.7629367683965484 0.85147153930573
H -3.5485216606086802 3.9335455227203076 -0.9116829898091198
H -4.250922334601943 2.3907336921265414 -0.23808452589244697
H -2.382980882366285 -2.4900117853322667 1.979092960036491
H -3.1689218018377288 -2.973089850516139 -0.21144963516790607
H -2.424005260712369 -1.8875238682185247 -1.3753617524459858
H -1.4051582218596506 -2.74860240758219 -0.07185275041595915