43
tyr_c30
N -2.545927844940449 -0.21245508191695428 -0.1012166771088399
C -1.2127493047104139 0.1379385911666318 0.314438274205411
C -1.2958939228484594 1.628797694717315 0.605562898445334
O -0.16091972116544215 2.202191371331186 1.0878896875873265
N -2.4128283266521193 1.896586310787727 1.4362393524081454
C -0.23299724420814164 -0.18160633371650692 -0.7583933645942978
C 1.1938618952434783 0.19869152053248548 -0.3774534316078845
C 1.621919781136458 -0.4959350436748029 0.8798474894771278
C 2.9483092660696673 -1.157124327281744 0.8524813512339319
C 4.007063055068915 -0.4037727642765632 0.07278171485096135
C 3.4828053761088356 0.286793293520324 -1.140887134543139
C 2.1088974573454258 -0.28717116596821596 -1.4983208708726088
O 4.64963281233677 0.5586453227693856 0.8802304897055292
C -3.0174367580212254 -1.4805337422320557 0.3339713590439939
C -3.217656222248914 3.007216616756854 0.9999923656605699
O -2.7922364882787063 -1.6655172308574302 1.7187009409812986
C -2.344446565172958 -2.6198554506781044 -0.3918399422862126
H -2.792456926576443 0.09289183968707232 -1.05244790069609
H -0.9811628693557272 -0.44368735701972883 1.249746912561874
H -1.5672320402967697 2.0842573249094416 -0.4129711926365423
H -0.26477009990409806 2.9935447973589104 1.663339887444982
H -2.411245117078529 1.6557824941322068 2.4037342138620117
H -0.5534099124282975 0.30621608663973865 -1.684418575681261
H -0.2095664370684363 -1.2712084246762319 -0.9364822894283378
H 1.367648588738237 1.266980950144714 -0.2871000061002173
H 0.8707635688723633 -1.2552846716527428 1.2027751401240732
H 1.625522347254235 0.2348257315516183 1.7477872567013786
H 3.3257709272861047 -1.1617973084369932 1.9164961911342635
H 2.8597399122421683 -2.2165256065554053 0.5391552559415875
H 4.7495365867980155 -1.1615447810577992 -0.23619616961912904
H 4.118401903696361 0.2631179196499495 -2.021258502492188
H 3.251108874743662 1.3666085054783668 -0.833167296240849
H 1.7056039789681805 0.1395814284324571 -2.434366764376101
H 2.119834712862215 -1.361579806823826 -1.585940014098781
H 5.434910917884295 0.1401643740888887 1.2552872005722122
H -4.129599028832141 -1.5463459146950804 0.20965995527070555
H -4.1897112478697975 2.64260379462283 0.5684877316609945
H -3.4291558641189446 3.6725776177958838 1.8545353548788284
H -2.626660005139156 3.5610609873635575 0.1997695180260819
H -2.3527832136058726 -2.533276789167616 1.8133659189777833
H -1.4604834139674165 -2.9866239010988163 0.11060862317820516
H -2.1509799705998933 -2.4079997989763715 -1.4851857309044818
H -3.0890234175670326 -3.487229072674589 -0.4596888725561851