43
tyr_c13
N -2.306513065459086 0.2419633564942103 0.9246257599670696
C -1.2071542719858281 -0.22669376195498261 0.03637530784337518
C -1.2324697695302127 -1.737827924120686 0.26763962445840034
O -0.43248577615336264 -2.471201284215544 -0.567452777766132
N -2.492531000593047 -2.3297513079364554 0.42479561330089205
C 0.002457867691295696 0.44617089312891156 0.6074321822047106
C 1.3327578519024874 0.29990785657940494 0.01748048371679356
C 2.2312270764488082 1.2421360912873414 0.908666442071394
C 3.474272159149256 1.5702411552022715 0.1451869367750532
C 4.235849403072624 0.2816000158917779 -0.0426633324301605
C 3.507884138952472 -0.9184488432287505 0.42466663317501213
C 2.0408080120424796 -0.9971515859361498 0.032162504497261685
O 5.41640910696248 0.34806895319581 0.7433966618610919
C -3.199016286085626 1.1523760773504519 0.28104177830151245
C -3.447131482415414 -2.3267009121144966 -0.5955880151543176
O -4.2744163481469615 1.4229064358940984 1.121565864882642
C -2.474213095826478 2.4609157526439187 0.009791808653761402
H -2.7532117050686034 -0.5136286297557656 1.4427935087745136
H -1.4064237993948467 -0.027516634910331957 -1.0132787878221288
H -0.7697143619278923 -1.8096158591944191 1.346431722598342
H -0.6586374759751673 -2.4461954621387987 -1.5087201323294641
H -2.816254799986278 -2.607257017195863 1.3596676327410027
H -0.17759617032039304 1.566587001853832 0.7091859112988516
H 0.10181680551492117 0.15520246905128057 1.7148402026034535
H 1.4407916924632236 0.7577885874831175 -0.9949627297669543
H 1.6470290362918518 2.122055084296883 1.2071974063975066
H 2.4890746912818975 0.6082366747234852 1.7683192976427622
H 3.2543721812877573 2.0725819737553195 -0.8289120400347666
H 4.057796506310753 2.2884755530232335 0.7303140284532604
H 4.624200300113232 0.21757806517218542 -1.087641150099959
H 4.002250519852388 -1.8072321637494548 -0.07571630100468155
H 3.6214709420094144 -1.0959719949957094 1.5109473810054845
H 1.9635907745030958 -1.5594906251377383 -0.9320940035104007
H 1.5941273433534493 -1.6553663840976194 0.8171656577166287
H 5.5110114296176205 1.2595537103232273 1.097055022811273
H -3.59651505007733 0.7699123199120173 -0.6999385625932754
H -3.345939573218987 -1.4555671622378947 -1.2465971701788041
H -4.466423408502911 -2.401327551198107 -0.12135288930583363
H -3.3404336879073013 -3.255569093988461 -1.2011172762643383
H -5.023501752973383 1.8798026236963588 0.6656342388805682
H -1.7352231075271787 2.414469602529338 -0.7808248808386099
H -3.3047676530755856 3.1799373032538116 -0.286634956066528
H -2.0886241966694925 2.884046641364888 0.9626930144980295