43
tyr_c41
N -2.07772857902797 -1.1609334670350766 -1.1646730714373466
C -1.050335148486154 -0.47185723874037394 -0.31288348682745715
C -1.706011871414107 0.7844532133804086 0.11502296944597344
O -2.0278746574338915 1.5332115104253277 -1.0315481921753786
N -1.1592781232749845 1.6219838323491231 1.0905276808396522
C 0.12315718359369147 -0.42181548585044154 -1.2129189214385434
C 1.4323525108463406 0.06745193220407923 -0.7994413280384146
C 1.6344111182272538 1.4417334349249857 -0.292350699494625
C 3.1247576992694777 1.8068209928016445 -0.3689850945609938
C 3.9705660185404623 0.7926726142488136 0.33810462910211314
C 3.6369532887097447 -0.6332501893660835 -0.062173862649343326
C 2.1562409244311826 -0.9014512708811397 0.14106056709014023
O 3.888892564326475 0.93751078621127 1.7377878992275368
C -3.2351803827106322 -1.5682192143500175 -0.4709327717123354
C -2.2832152089152653 2.184792652392116 1.8939694342099562
O -3.9872602895925673 -2.3367868812634844 -1.4145402846098896
C -2.8973733487751274 -2.5929634335626695 0.6354162361115788
H -1.6487147084631362 -1.9596314475053476 -1.6526744219778444
H -0.9458402640067091 -1.1383178075776705 0.5561986779253233
H -2.7041838268396647 0.42777335494095386 0.587584223135505
H -2.60618179358142 0.9107464120441505 -1.5794768077757677
H -0.6912749251565312 2.5095904071067703 0.7555265665338134
H -0.14768592581121476 0.16881918063414703 -2.1743551982074094
H 0.30279284028560755 -1.4515643820628001 -1.6986893055334706
H 2.1144299306413457 0.0207257181980397 -1.74668750608485
H 1.44716749564158 1.3998377509495126 0.827305721267858
H 1.0600508574943397 2.246165416191098 -0.7853647900661864
H 3.291581606311429 2.780010884329009 0.1518214268807028
H 3.3908049052085434 1.8146782893322013 -1.4353008998972514
H 5.031794965390881 0.9689300417749198 0.06296054552953026
H 4.280844809158042 -1.3037650567674104 0.4974531442217058
H 3.8477588308148083 -0.7123135435738858 -1.150703137359384
H 1.9269001163806598 -0.6502345587025533 1.1919053020737806
H 1.9461507580610602 -1.9441454537376344 -0.1482895331510307
H 4.056730817686245 0.09248465996828911 2.211616030545558
H -3.9464066287108377 -0.8366719434970519 -0.12027161965971639
H -2.586865130170703 3.188595621629863 1.475557420574778
H -3.1828854824623227 1.557743905101755 1.824915965150807
H -2.024516755798965 2.3286000697484415 2.9397880592406667
H -3.425072975422029 -2.9431625335913125 -1.917065778303092
H -2.608903883883905 -2.0951538096379068 1.5806406437857017
H -3.7144733918207367 -3.3046865933036194 0.6948546517667429
H -2.0070759392600364 -3.1584083698803527 0.22930891630089417