43
tyr_c12
N -1.5432078533511737 -0.6019712599165655 -0.21066806387186984
C -1.06513588859124 0.39196250006165456 0.6942959040057322
C -2.192611869811024 1.3398494266738619 1.0333758410045872
O -1.7356026032204441 2.3651035113655405 1.8751662700417402
N -2.9071856450118747 1.7863877690415233 -0.07259721803850541
C 0.21433127080707434 1.0472889043046947 0.35311722065579754
C 1.443198707369127 0.19239988536562813 0.27121875961573727
C 2.612979302860816 1.0821297192453432 -0.08556659329670509
C 3.8293575167532996 0.3778326845810318 -0.5283561967991827
C 3.5945396808016707 -0.9051510139168824 -1.274048306539316
C 2.5900856922774644 -1.7738863854127405 -0.5600631613197679
C 1.2695390250434875 -0.9646079381275239 -0.6210173404441761
O 3.0541849064920457 -0.5848539666965893 -2.525487673205823
C -2.564451641410269 -1.4618115688895552 0.26033415440331087
C -2.2964235699800737 2.5799989475311444 -1.0683343828460605
O -2.9815527245200633 -2.279161928237991 -0.8167096118317515
C -2.1742503162888083 -2.349342574460144 1.4040015894494031
H -1.6433247342909263 -0.2834583464599564 -1.1839075935145151
H -0.8642874142850957 -0.2025912875501191 1.6851185459182714
H -2.9185764844666715 0.712004165236973 1.6660274833675497
H -1.2442165751459169 1.9060378857711295 2.616608763194114
H -3.760050677226415 1.28574678944633 -0.3674926403210791
H 0.1177702451450499 1.6891223693473283 -0.5721247444025264
H 0.3930759098359312 1.8319949495339025 1.1587686795501169
H 1.6331971103210334 -0.2118566227548256 1.3085650323741436
H 2.845625587138795 1.683914481003236 0.8183028631501783
H 2.2344349157123813 1.8104554819965104 -0.8466680163336896
H 4.537258245179677 0.13094116312058815 0.3173869938332684
H 4.414401070497047 1.046817419167418 -1.2018154453929217
H 4.563274849032168 -1.4458102189529596 -1.340809820293645
H 2.484202126476857 -2.739525277008768 -1.0549711727920277
H 2.835380125816875 -1.9078665638783567 0.524282079020103
H 0.44936588636454816 -1.6147702824040258 -0.2714039594003475
H 1.1755509551083905 -0.6380833207755353 -1.6807801380931997
H 3.732358753256897 -0.615014982234821 -3.238053450056855
H -3.4539149510408254 -0.869551995199647 0.5908868410077901
H -1.810420371682729 1.9985208263464993 -1.862493204873986
H -3.075192274554734 3.24364388676295 -1.5864025067540841
H -1.58760126273092 3.2928745628198763 -0.5959035550812162
H -3.9356475920874683 -2.5083272846772013 -0.7444373229441461
H -1.327875192973663 -2.9971770533933952 1.0710741898600165
H -3.0420054559602554 -3.0470077351117952 1.6164191355790625
H -1.900576783659914 -1.7931997226636711 2.303646197680452