43
tyr_c20
N -1.5194016368769503 -1.0265292247214124 -0.4961490642355594
C -0.9895215987013491 -0.06313893371778485 0.40532062081430276
C -2.0190471545008317 0.9024904556631318 0.9627374776945798
O -1.4271657108873843 1.8189739317610756 1.8290866150474654
N -2.723885051086127 1.6259772932296426 -0.049938787186651595
C 0.1256071043137587 0.7711253293961475 -0.15154514357800583
C 1.3359375364849604 -0.019015150409861896 -0.5918406845440828
C 2.3330168430476284 1.0017696543867491 -1.1206097987810162
C 3.4126103777030683 1.268558631202848 -0.08627000753020188
C 4.284915204145397 0.02145055908521074 -0.05953335359151722
C 3.403408309097249 -1.1316186287708345 0.2802379221199153
C 1.971561781531518 -0.7402783106940812 0.5493156620097397
O 5.3247598525186355 0.18901089362396847 0.8387278791654212
C -2.477425452816571 -1.8616171736281026 0.19918238262957494
C -3.7683692643748623 2.407117384810217 0.5850320093704844
O -1.8973264359088882 -2.473844052636604 1.3190695493216749
C -3.0725393490491535 -2.9093221810336405 -0.7166670343437525
H -2.0021115968175716 -0.6294803318005429 -1.3299513995621144
H -0.5807084696497203 -0.6043837180980952 1.2877988946665722
H -2.7921117239488717 0.3785923186127824 1.5848198296228428
H -1.302809872870558 2.7076004338437074 1.4285239312787
H -2.119305102048867 2.180174272276979 -0.6861829154769817
H -0.3073453443212572 1.3230178161150292 -1.0187250725011172
H 0.4504158803855851 1.4678785203549625 0.6458823761539513
H 1.0658885102021045 -0.7235982099472716 -1.4268061263303664
H 1.846313313162151 1.9766748739254265 -1.3367960245048385
H 2.829612655710812 0.656091781961375 -2.048982267208353
H 4.04384285769379 2.1045833228758832 -0.46698794817184874
H 3.02736712443214 1.4445314038994934 0.9180248328529226
H 4.74661081622136 -0.06202777986089885 -1.0741992804619407
H 3.7911198042042935 -1.5918276564229734 1.212707433022759
H 3.5087878162453707 -1.890767783440028 -0.515873628988556
H 1.9236366163876522 -0.17484305767077388 1.4793099207821956
H 1.412164519240033 -1.7046597064180875 0.7081241764765989
H 5.174065909426664 -0.22952418897323515 1.7186975785406173
H -3.3568842641946732 -1.2761687046496366 0.5884096459028799
H -4.560020295817628 1.7124978594275857 0.9730716709723819
H -3.40491733205783 2.953497467270016 1.4784638873645484
H -4.205805555231602 3.1680479401797643 -0.09856975128555566
H -1.7203372581940397 -3.4353323065479637 1.0883137586532374
H -4.16496782096199 -3.024068913189483 -0.559674610552964
H -2.6251318283682052 -3.8974614793088778 -0.4973971979549775
H -2.974504713469243 -2.610154651961876 -1.7929996328025612