43
tyr_c1
N -1.2271691495238088 1.2163854391605113 -0.950115935115234
C -1.071790973944724 -0.13031255744341178 -0.7498096158429811
C -2.3728851410382887 -0.8815685202551309 -0.38778886949352115
O -3.25731226299013 -0.7135528639255164 -1.4247562023506333
N -2.112936441355578 -2.3064275190353576 -0.2610181077578053
C 0.12069682605610732 -0.7080878496473061 -0.08691435155238819
C 1.4441216982047573 -0.47986096673993583 -0.7542159147268876
C 1.8417598797146846 0.9193233506460763 -0.8913688560946762
C 2.8520033397675872 1.4067032251472738 0.1228809084561519
C 4.028501100602958 0.45397569204730065 0.17532012287612742
C 3.4374761946520747 -0.8284920937606198 0.7711706765470403
C 2.5114302137829014 -1.408618622866077 -0.2304724495181143
O 5.019546488839822 0.9871811538645537 0.9616495332758948
C -1.6581536275852635 2.1635521157632307 -0.04577883392594549
C -3.4418113319530397 -2.941294450771371 -0.3371284083281868
O -0.8071494499994611 2.4141757492696416 1.0413800094317351
C -3.0418608278996753 2.0710659721221103 0.515744720133015
H -1.262534252165851 1.5192701221519893 -1.9271837812513792
H -0.9380366644832313 -0.5508972101524643 -1.8320357501666613
H -2.7537250495611376 -0.5664568820990928 0.5957565446073495
H -4.198374893701554 -0.8235188165760254 -1.1902333733785584
H -1.7535661847558603 -2.4819466568964357 0.7242339899144747
H -0.04243028477487559 -1.8343151503565336 -0.09986863708957927
H 0.19148410112696376 -0.49304818551215523 1.0001121236296036
H 1.2833238970836915 -0.8575885530445961 -1.8260815516370097
H 2.3227223691785297 1.1235623718607894 -1.9039827388771475
H 1.007082256255734 1.6265794001977307 -0.8518187800084448
H 2.4265254610745455 1.467144971681062 1.130191449851093
H 3.162187509182049 2.4223609476886647 -0.19559803486477123
H 4.40860515618214 0.21218036614721678 -0.8429156413904634
H 3.0017876636427925 -0.5970236346141174 1.7549865148529866
H 4.30767482128763 -1.5183235773956874 0.8622570805967567
H 1.99393595714046 -2.2820423671297747 0.23881500523400984
H 3.124512431913571 -1.8231209449593426 -1.0560222714866676
H 5.906683827816253 0.6667458218000964 0.6604469074272773
H -1.6333287598068504 3.1622909165445723 -0.5953152855679956
H -3.4160584858606176 -3.964435647646238 0.03139650822865222
H -3.8091652381048324 -2.8857570353489677 -1.3679764561374688
H -4.146610460510899 -2.344906489337423 0.31017495251311394
H -1.2092655433440584 3.1796424595974297 1.5555191984216072
H -3.0835200400656575 1.5886923691683275 1.512548976514396
H -3.3840357614034913 3.1298666774432173 0.733124540850893
H -3.7703403686765307 1.690897473211653 -0.2135828169900611