43
tyr_c40
N -1.7131174998098366 0.7953741847627257 0.5029566151886948
C -1.2127573949131525 -0.42312066576468405 -0.08778364084482582
C -1.2461133219880378 -1.5680816482562574 0.882603605319508
O -0.5872122846399775 -2.702758129316195 0.35145110624792564
N -2.624562323067559 -2.1263329787061873 1.0490935790087437
C -0.0109186639814697 -0.26734874966576005 -0.9087502615621045
C 1.2342454870555306 0.2730391298962914 -0.3305965304144406
C 2.2494291606956733 0.2861260867544313 -1.4956452419648636
C 3.6233402442896567 -0.09672711978347294 -1.0698770864154894
C 3.977308367320126 0.7030730965057613 0.15100169761292306
C 3.112394696785012 0.22947113834961055 1.2659654629173736
C 1.8629459921803566 -0.5116883908848574 0.7699509699812355
O 3.685850960177677 2.040511043913117 -0.14419579646772224
C -2.158898240205876 1.7404362106398796 -0.48313413256052745
C -3.06857987261976 -2.8026797196143285 -0.13349076859553854
O -1.2330360562703069 2.769816589614694 -0.6873022025477111
C -3.5366318133331838 2.2947973306845797 -0.1995904642471793
H -2.4398938341522842 0.6583339325242673 1.2319182736587169
H -2.042019519749218 -0.682947296805683 -0.849778407162283
H -0.9225739792662402 -1.3497294927669932 1.8847208689999375
H -0.7076481381873782 -2.7933488753324283 -0.599580910150241
H -3.279427597547331 -1.3264763496550522 1.2654036899955936
H 0.24585485130877635 -1.214390472762186 -1.4463406926691749
H -0.28021407744342547 0.4311759721563745 -1.7669099415075549
H 1.154393352575901 1.3388046979752373 0.006962192844241231
H 2.2231783434848955 1.2443270609423023 -2.035639261564999
H 1.9457949829147099 -0.48601973160642464 -2.2650365129222414
H 4.330181105697151 0.19471070634973528 -1.8631567789207262
H 3.7305039211924 -1.1844928556925831 -0.87144421704039
H 5.052021305516964 0.5891350553191698 0.3583410580519124
H 2.813382364723223 1.0392745423971872 1.9379050738014891
H 3.6682358601651615 -0.5187160522445018 1.8852736378128938
H 1.2475160372628837 -0.5839070752892171 1.6805409835424538
H 2.1617308688940033 -1.495187995548492 0.36706594427941813
H 4.136897569540854 2.2897496655175216 -0.9868818189407997
H -2.2628791959584564 1.2443602000497924 -1.5002204958138563
H -2.4994239742395274 -3.7663701614582967 -0.26467507141674373
H -4.114425219372465 -3.173447718491098 0.10555536331742393
H -3.144611662703235 -2.1885818387428317 -1.0125111443818757
H -1.7641845311126385 3.5858767815963066 -0.8161332614333969
H -4.34094895616948 1.7713495944452786 -0.7393312119178506
H -3.7153885517300447 2.3816552435912706 0.9039422798420452
H -3.5497387633202715 3.3609550544017828 -0.5896779652330444