42
phe_c6
N -2.247308809797552 0.3624875285744999 0.6685861941725401
C -1.0069167821934186 -0.04149380247873703 0.06752596631584977
C 0.21298976780333043 0.44847411136800636 0.6799358966940925
C 1.557710601345276 0.17886182038544135 0.20971679845683075
C 1.9301698579432944 0.613278136142508 -1.1803008367239896
C 3.4390542253351004 0.6577273655284385 -1.2535290710643117
C 4.1594313737177515 0.21301715035229896 -0.029453725156991288
C 3.666614271761231 -1.0724059601041245 0.5641372340613442
C 2.137207146332924 -1.1841216513425026 0.39670356463711476
C -1.1257448463038597 -1.5842121044429125 0.030253200158585573
N -2.0682314726284554 -2.07222063050407 -0.894994184868666
O -1.3234550004273353 -2.1170610883896255 1.285682391749784
C -2.6958886543842024 1.6743916087980972 0.6667602978658493
C -3.4074859184832906 -1.6964873838068752 -0.6988009346291009
O -4.01500031404291 1.6626097880140625 1.2295257364670389
C -1.9485876151630028 2.70643818723586 1.4353435648362993
H -2.389504367425763 -0.13825862327965407 1.6003155253090064
H -1.1198895165726088 0.21446234982172876 -1.0250073359541532
H 0.17601080628937138 0.17489526462420138 1.7846264407238666
H 0.11652889640927257 1.5887280834367383 0.7612728026510543
H 2.2646555346973507 0.8436158822632628 0.8590552593972066
H 1.6106725267719784 -0.21048859797594996 -1.8725363991876032
H 1.5569225814926344 1.5889994369642102 -1.47034272239925
H 3.8165123972889696 0.07777895942714037 -2.132860569563951
H 3.761924800723742 1.7392962467759867 -1.4132132185826136
H 4.273727500182241 1.0215126647375479 0.7367057197734243
H 5.2322741982094785 0.01606441536536565 -0.3432594579954309
H 4.192776157440751 -1.9095216350485906 0.08550841903003867
H 3.872907578846278 -1.1184560678805686 1.6464040347016065
H 2.056586964365101 -1.7527355627081522 -0.579572485581446
H 1.6816592501931173 -1.790201148025127 1.1819610961855203
H -0.12590308596935496 -1.9936675321016515 -0.30842503380186054
H -1.7959373154128506 -1.9368623750584608 -1.8987604805533345
H -2.283732312570363 -2.1754887386784394 1.4889488509532058
H -2.9044016825701724 2.0342081564729093 -0.3987641563204772
H -3.6900898796647383 -0.8065251901997774 -1.3205188350379582
H -3.7532847668189704 -1.508432293780719 0.3109149250579211
H -4.103553882850529 -2.504789610250309 -1.1077916732016666
H -4.307545945237776 0.7611022942032499 1.4513728254014149
H -2.6892916768144457 3.4397265648528874 1.9030662464551125
H -1.4341270390063907 2.2529036568078333 2.282178628934179
H -1.2804555528112342 3.342850323903836 0.8081269567734009