42
phe_c15
N -2.2824135036551185 0.19818317517530895 0.3562737209297546
C -1.0233627595228403 -0.34144680622604096 -0.07488765233577756
C 0.06795158031259685 0.32875221295228574 0.6329069217437424
C 1.4654604756493397 -0.08534344254485654 0.3344943344813812
C 1.8618095265150716 0.10132740868269456 -1.108745030017679
C 3.2966775981159433 0.5628240317113026 -1.2567951402646678
C 4.195157695725312 0.0013236089534203967 -0.17780810523475532
C 3.7245259517279594 0.34735191451533665 1.2125454977597565
C 2.3444869409513993 0.9119430310759078 1.1220166312024356
C -1.1115804620817948 -1.8337316484001964 0.12406374179786324
N -2.1747298918984055 -2.4043892662237547 -0.6497492416887078
O 0.053973844162785355 -2.4937429587990354 -0.2546881709297343
C -2.5074237396509695 1.573005776902733 0.09062621788887322
C -3.482493438107906 -1.9509802348289043 -0.31691635990718164
O -3.8084946564455464 1.8673422982792571 0.5741954489029508
C -2.5325392724911344 1.9294466285535732 -1.3812653733099858
H -2.28266029196707 0.1116251751582917 1.4192723746730886
H -0.8802966586409509 -0.18841637615067852 -1.1840310097876368
H 0.010932275903191018 1.4217663666984994 0.40000061046102836
H -0.07819771961559656 0.16144466198319593 1.7409739214784699
H 1.7621995751774004 -1.0667213895435954 0.7371266620405822
H 1.78871715591463 -0.856139303289711 -1.686892616961843
H 1.2352323092115778 0.8451793375932282 -1.6178087786256887
H 3.715683142323487 0.17798867265336452 -2.22735026809978
H 3.3840376988280894 1.6662843369996203 -1.3117857309664107
H 5.200339304515545 0.463663812892001 -0.3465692690591942
H 4.26509301932946 -1.0961054828603207 -0.28695214551514714
H 4.403895655475353 1.1065478542770089 1.6690974512045007
H 3.7022786810021913 -0.5425787925541918 1.8462606137277056
H 2.328501555418318 1.8984045202217508 0.6010805989258463
H 1.862537420262684 1.036752714439239 2.099339617658103
H -1.2354478816495653 -2.006059582387859 1.2127145867208464
H -2.153954989427142 -3.450558142627448 -0.4786480183806059
H 0.015075667420467804 -2.6739427913735954 -1.2315075062130116
H -1.8496169817924404 2.264695602453719 0.6555604825091423
H -4.2185006584571445 -2.763125067211984 -0.5841224732030539
H -3.7479577905013803 -1.1100432442636274 -1.0168643181469403
H -3.667948689111912 -1.7186318332519461 0.7320641309471017
H -3.968543972285515 1.398094927213603 1.4285025858830362
H -2.8942260828696913 1.096388762369464 -2.0051805832538627
H -3.2467145395224644 2.7852063551512836 -1.5708307784166404
H -1.5374630942482523 2.326413175631812 -1.717770368117555