42

 N   -1.094432383631   -0.736415431582    0.973051301056
 C   -0.761683442801    0.438723469399    0.165539097717
 C    0.133071479746    0.117768484108   -1.048060381860
 C    1.634777980520   -0.118241620547   -0.788351894214
 C    1.961638567393   -1.459009627904   -0.093342282070
 C    3.369783599410   -1.466862986291    0.537116682531
 C    4.335299875007   -0.561016077370   -0.227773724520
 C    3.869143023337    0.908874386730   -0.179113625923
 C    2.337122911139    1.031659368419   -0.054435609143
 C   -1.981883023103    1.302614227366   -0.221093037675
 N   -1.706491471983    2.675526507442   -0.573735568738
 O   -2.630301804058    0.692585976511   -1.298236404036
 C   -2.246074286657   -1.573060997314    0.696045581193
 C   -1.428665114079    3.586144248807    0.518220666975
 O   -2.408601132086   -2.295051545849    1.894340264105
 C   -2.047161296622   -2.522303267661   -0.474921750498
 H   -1.166081665394   -0.474030955740    1.934850769652
 H   -0.185596667877    1.062311215674    0.838601252468
 H    0.064941414736    0.945405732019   -1.749415631477
 H   -0.267373559292   -0.736089398481   -1.576934516418
 H    2.079327238622   -0.156063397532   -1.782601192055
 H    1.221873123907   -1.671394671704    0.665906578385
 H    1.886767830956   -2.255575629236   -0.830506435582
 H    3.752045526126   -2.482659452891    0.576975961442
 H    3.312974725852   -1.126091307899    1.568761673423
 H    4.392827399376   -0.897549870458   -1.260196036010
 H    5.340543001472   -0.645288163895    0.174755538358
 H    4.206014437623    1.424106059570   -1.074634693603
 H    4.337729459929    1.416923040421    0.659349622272
 H    2.014158738810    1.994474315819   -0.445173930535
 H    2.058801903994    1.019053081326    0.996260665360
 H   -2.643119468223    1.340794999800    0.643370870949
 H   -0.999489017205    2.728979639335   -1.279523788673
 H   -3.269844150750    1.308753426006   -1.632443788681
 H   -3.147302619502   -0.988790790615    0.519726718559
 H   -2.273175931327    3.603000887113    1.198431839526
 H   -0.536714154820    3.345626509400    1.096909639853
 H   -1.307906291388    4.586616069781    0.120479390185
 H   -3.200962180824   -2.810421043845    1.840983355491
 H   -2.016962845004   -1.989693148503   -1.415295733784
 H   -1.132727154405   -3.087809702788   -0.342197817223
 H   -2.882247688164   -3.217781747933   -0.522256780481
