42
phe_c35
N -2.2140794062174645 1.4004760221170824 -0.5064146266988659
C -1.0562824905174095 0.5618534692437451 -0.8648474725642181
C 0.13856300575708982 0.9513104412619162 -0.0858352629811237
C 1.4982026683784582 0.46087502291143956 -0.40360310451867554
C 1.9021536663827827 -0.9313260447665739 -0.48562374311314893
C 3.457687977827723 -0.8962144113647348 -0.7554476015809974
C 4.149126617770292 -0.6543116587694562 0.5422629441454512
C 3.2093215771887333 0.21990520187517537 1.3889486077531161
C 2.505143621848318 1.217551991886607 0.5154639102822772
C -1.5631279127307733 -0.869035026188701 -0.6251509725511893
N -0.7402896485877459 -1.962496779661365 -0.9109309865679011
O -1.9748946850781548 -1.0314424897480738 0.7106957075218525
C -2.77602603756836 1.396594849241409 0.7280400935809032
C -1.5693479816424558 -3.036368077062892 -1.5056083436259367
O -1.999020952550871 1.6006815681625253 1.8544653523174186
C -3.77845708988169 2.594173589799673 0.744714298900002
H -2.8103766367178125 1.4682749563876536 -1.323098600939661
H -0.9210101431263524 0.6789060013173667 -1.9157224399019017
H 0.2523766126424142 2.1041552413376725 -0.09527903859197187
H -0.047177889422135924 0.8064635922591762 1.0418324131651988
H 1.741928643525955 0.938176291603594 -1.4231280937026434
H 1.539500783567886 -1.3609519845092388 -1.4739828634713823
H 1.715429494081042 -1.6192140218403408 0.32126392387141584
H 3.7696976332792795 -1.7797055939254918 -1.3047999020745524
H 3.590255491163123 -0.01437918123943782 -1.4107851622227485
H 5.0874568927502315 -0.09352866084240963 0.4151937086553784
H 4.3396844880999925 -1.6016210595853657 1.0508982242355058
H 3.796186997423842 0.780186981435989 2.171007990226009
H 2.4558108291441707 -0.3830762080266144 1.9269124848460808
H 1.9310094026198237 1.889695478060724 1.1828938149026726
H 3.1721035718723236 1.8259571801394285 -0.10300511464559038
H -2.530592652185723 -0.979572613663126 -1.2179803598153975
H -0.4120626782362386 -2.4664405351357153 -0.005836551976474003
H -2.73812889849756 -1.6967018943540622 0.7257544160925431
H -3.4672689189219956 0.5595186371902949 1.000924957893537
H -2.3795378177886066 -3.2201244658619506 -0.7347898753691895
H -0.9853458990169864 -3.9469959167580955 -1.6247359578602685
H -2.060071032923566 -2.7173841427326484 -2.4220202388347354
H -2.338431689177202 1.1831082943018414 2.680329415287281
H -4.431211538637945 2.5414102701736456 -0.1438848255676806
H -4.317705447984981 2.593500976062415 1.6890562122176078
H -3.1411925279113095 3.4881147092673284 0.6518526632817263