42
phe_c3
N -1.442399893841354 -0.7510392252301321 1.0775885152728548
C -1.19431723758285 0.39231202587839 0.3324526051023766
C -0.29484056297527683 0.353825068083984 -0.8381387656101039
C 1.1325516785847634 0.014371794937938217 -0.6039910193929279
C 1.4723212210675543 -1.2700856571062653 0.035998069971967674
C 2.7477924576446284 -1.1117072757459305 0.8974176156825688
C 3.814191016606412 -0.4191585132009469 0.1267785586116275
C 3.383963651147273 0.8825682722001542 -0.5124747734051917
C 1.9498434352743386 1.146178088306428 -0.018805769858297017
C -2.464096255656242 1.1417838632800312 -0.09396399797275372
N -2.1042627433569336 2.370244983471541 -0.6791444892364035
O -3.280065575652907 0.4121890546538853 -0.9134525881010117
C -2.1558674261844026 -1.8624030224076278 0.7054738273405182
C -1.4651398985548851 3.353348195496123 0.09452498966727109
O -2.1590594873704325 -2.744671445580411 1.8456017225106804
C -1.6617626414205642 -2.710616017671495 -0.4132349163452048
H -1.047623124610064 -0.7485320077157908 2.0596331280329356
H -0.7279758104148761 1.1485099451944973 1.0532474431868677
H -0.2668067860669412 1.4301500878052607 -1.251856183813982
H -0.6695922160623918 -0.2031414158245947 -1.7000253798043214
H 1.566271516947095 -0.06834000859299885 -1.6709435123821752
H 0.7066327473614179 -1.6820755115323875 0.7361379670487749
H 1.720949333784616 -2.1117641691735933 -0.668310525933223
H 3.092776385723659 -2.1427123061343822 1.1144535735762375
H 2.498115743603626 -0.6381856036668648 1.8713261558267515
H 4.191019655630064 -1.1351527888005624 -0.651337362115356
H 4.670353669694294 -0.20902049432774913 0.8330696434492425
H 3.313424702181499 0.767155012541652 -1.6285442261474028
H 3.9727090991363423 1.746705831381555 -0.2231149113973635
H 1.5869808773302319 2.078193007339881 -0.46806673618362094
H 2.011579705634918 1.1650205363933894 1.0669797815513695
H -2.995180194676939 1.388475381753768 0.8838135078725385
H -1.9526692609500842 2.4492418353242056 -1.6771988961143611
H -3.3080515412015323 0.7598430963555691 -1.8416491025025805
H -3.278702783312971 -1.6768025668985171 0.5980554053341073
H -2.0039257874284613 3.5351818585681265 1.05833464153392
H -0.3927076395069691 3.161495042883917 0.2702136703719475
H -1.4907751439866783 4.360821797771243 -0.4278947432243426
H -2.785382756668223 -3.486170944587497 1.5993497723904324
H -1.488168930626133 -2.2225271679455765 -1.3603505271571859
H -0.7719657224639885 -3.303202743683292 -0.04618650847360542
H -2.430137476780258 -3.560305893795043 -0.5717656591635003