42

 N   -1.075236061147   -1.177796895586   -0.903609824531
 C   -0.784192084461    0.132621535357   -0.344457652430
 C    0.634054367815    0.532176707149   -0.789980607595
 C    1.754358009154   -0.430515757980   -0.370307874374
 C    1.842347103603   -0.585148538023    1.163848087480
 C    3.234950598549   -1.039715924353    1.604227459939
 C    4.297227200613    0.031489174525    1.287977071864
 C    3.919637245232    0.865308296405    0.048409055391
 C    3.116535492172    0.030141495030   -0.950764082259
 C   -1.792515368566    1.232401571033   -0.745502973903
 N   -1.389811500716    2.553975480407   -0.357158193924
 O   -3.052937945463    0.870202503838   -0.198654371547
 C   -2.129176787685   -2.063382421838   -0.467142793363
 C   -1.367955262243    2.862596686625    1.062105314898
 O   -3.385306547539   -1.786894728727   -1.024655865322
 C   -2.217418886596   -2.178276261286    1.049249557077
 H   -1.044112051563   -1.160860868782   -1.903732987249
 H   -0.811309030367    0.044240236361    0.733078025717
 H    0.631476774174    0.610137317251   -1.877290598236
 H    0.856471569373    1.526868500579   -0.423703125418
 H    1.526799494107   -1.405171265879   -0.785302923799
 H    1.614393132814    0.363402993383    1.649573774221
 H    1.093272171048   -1.291706000665    1.504957135658
 H    3.478808064758   -1.966972911357    1.091068521011
 H    3.241932613640   -1.270253615478    2.665508157572
 H    5.259012785769   -0.448938678394    1.130567577099
 H    4.422190489913    0.691275458630    2.142350832701
 H    4.815019739582    1.261441579238   -0.421691151707
 H    3.330241525753    1.728117790479    0.348893845572
 H    3.707615792822   -0.839823219317   -1.227889280911
 H    2.959888756380    0.590487104904   -1.868274680070
 H   -1.872271050744    1.239448748018   -1.828996063281
 H   -1.912814572398    3.242348297268   -0.859902599693
 H   -3.701522650142    1.515178223405   -0.448653468558
 H   -1.873261255147   -3.035975651521   -0.867283715167
 H   -2.314458237656    2.686554405222    1.567720311486
 H   -1.100287436436    3.905241495721    1.183580189237
 H   -0.608115284602    2.273869676866    1.560357717357
 H   -3.632904029362   -0.914542007183   -0.742251948410
 H   -1.255593635312   -2.435051210093    1.479364189220
 H   -2.568443461497   -1.256492204219    1.498746395883
 H   -2.927372905376   -2.958582173860    1.297021652725
