42
phe_c14
N -2.231559284081284 0.025934030314470786 -0.8925071056207107
C -1.13596498137979 -0.09973653297225253 0.0825220328239574
C 0.0984519913235849 0.2638138509631024 -0.6960954104984646
C 1.3884893421458613 0.2220675666078009 0.027702011073399608
C 2.454109014311008 0.630667504070688 -1.0150397160943754
C 3.8234914462984113 0.5939001203273142 -0.3718284772356291
C 4.170251152004552 -0.8197245657710581 0.01507964958277038
C 3.116918332158388 -1.366484618337089 0.9263644345003715
C 1.7417161421099059 -1.2288749490076973 0.3609248006775182
C -1.4241363164269125 0.9020268665181128 1.1930113645148983
N -1.3504378696922927 2.2559473842831945 0.8116585410356768
O -0.39640741217786746 0.706190183533493 2.1721265647785404
C -3.35549621705448 -0.8025313451073004 -0.5975231724941537
C -2.213942930460832 2.8234017438360013 -0.12648390925503034
O -3.9912147047438267 -0.45414071519052684 0.5691972630072407
C -3.075300602017285 -2.280636151758917 -0.6156441885980649
H -1.8964139574511216 -0.09712075152728043 -1.8529196469871574
H -1.1485605554034253 -1.1279708557172934 0.4443285419101348
H 0.1395698891267462 -0.4190398370007214 -1.581053208162931
H -0.10610487482564383 1.2876986664694485 -1.1236046955070715
H 1.4781225491165841 0.8421923368776516 0.921180336559721
H 2.2707929019645228 1.6090707143929686 -1.4428827101768493
H 2.41477730906955 -0.15015302685676057 -1.7983500562630037
H 4.533000313464273 0.9291731935486902 -1.158996567495114
H 3.866632238732846 1.2683835086795883 0.4862063517178793
H 4.361866591592242 -1.4600331040919168 -0.8763087836538543
H 5.135781059352733 -0.7781144832892668 0.5552363306140972
H 3.30415762661087 -2.477502826423779 1.0083091436773135
H 3.226816206855252 -0.9391096611473292 1.9419437988607648
H 0.9860432673122728 -1.7156439688954481 0.9841471635116043
H 1.756952370627804 -1.7500553641909085 -0.6369606678203422
H -2.3572579606531257 0.7063401808575627 1.723192453509178
H -0.393153386231529 2.6649813751247584 0.7950577981345465
H -0.747077245774115 0.7698321512652522 3.079842989574475
H -4.084203796177141 -0.6332443991290916 -1.4469801931522444
H -1.560874987557303 3.3737491619308146 -0.8873046394443992
H -2.8461446133398716 3.668218915027932 0.27698516763649794
H -2.852909663382017 2.1767515844974565 -0.7123894165916091
H -3.9547970709257756 -1.178697380579126 1.2403986331838106
H -2.316971919675754 -2.562159777005593 -1.3578916588698111
H -2.781555725713121 -2.572579160715067 0.4137022221402762
H -4.047453669032891 -2.806787564411731 -0.8383533691037995