42

 N   -2.187461045834   -1.086093923381    0.918741831931
 C   -0.954646584270   -0.295473037386    0.760811757562
 C   -0.006278369059   -0.802364350359   -0.342758296602
 C    1.428766854453   -0.254889344841   -0.346692798703
 C    2.223263138479   -0.831566389112   -1.525964344388
 C    3.587898922394   -0.133838234578   -1.688777042478
 C    4.172995729860    0.326935013282   -0.339307724273
 C    3.715946790072   -0.593685275598    0.791681725252
 C    2.184934157197   -0.540681237967    0.972504520339
 C   -1.302212372930    1.216211759950    0.687485617657
 N   -0.355005320702    2.010996646851    1.420031460415
 O   -1.396080491281    1.697434152137   -0.628681231230
 C   -3.084313893113   -1.468364597297   -0.141988304617
 C   -0.786033692554    3.381227404061    1.640638810318
 O   -3.346385029464   -0.319350021373   -0.913003051889
 C   -2.661657212911   -2.628870895117   -1.047835145687
 H   -2.027057670587   -1.873239268889    1.511276046953
 H   -0.467074063873   -0.415884071067    1.718619438372
 H    0.055780186467   -1.884693138733   -0.246281900456
 H   -0.449290143807   -0.595810052979   -1.309393660363
 H    1.381259899567    0.818951902884   -0.504447195846
 H    2.368021746735   -1.898196851294   -1.363345690933
 H    1.653261708858   -0.739068853972   -2.445829670724
 H    3.484656887419    0.722771328775   -2.348830255737
 H    4.280803854050   -0.813645971181   -2.177143237057
 H    5.257145178627    0.359078539161   -0.393028962789
 H    3.849531138046    1.342185220634   -0.121357696495
 H    4.206553718086   -0.328376592583    1.723441271827
 H    4.027929402452   -1.610300867799    0.563257243056
 H    1.845287924202   -1.488984184143    1.383921851473
 H    1.931301240198    0.214808121721    1.708755533976
 H   -2.257185361028    1.329549857032    1.185454204021
 H    0.518596480545    2.021063077601    0.933812415788
 H   -2.120675427258    1.248528379297   -1.046968582827
 H   -4.003188655191   -1.770482864356    0.355969373828
 H   -0.013944607241    3.910259293850    2.188324523837
 H   -0.999528766409    3.925872509709    0.724423227675
 H   -1.681211846185    3.380734402159    2.253245105655
 H   -3.967847888458   -0.531107251700   -1.595584022696
 H   -2.401955381832   -3.498396694714   -0.451947729461
 H   -1.818730376796   -2.372464527157   -1.673525062244
 H   -3.490418123086   -2.915567003149   -1.692546948574
