42
phe_c32
N -2.3887704585921514 0.7112346682377955 0.7326657271946962
C -1.4002795235632872 0.002854537606213232 -0.0731946108342338
C -0.08929292677358071 0.6654197256227882 -0.03804159290698053
C 1.0851940984851967 0.18657845169139023 -0.80374579335052
C 2.229858208116859 1.2169788005021265 -0.5096313567152185
C 3.055651687587319 0.7461589148006915 0.6714972654928256
C 3.858528848679392 -0.4776331108085407 0.2533146191552291
C 3.111299476036039 -1.274757220347485 -0.7769691553262493
C 1.580912954164702 -1.1719552923885599 -0.5586996328651133
C -1.454222404979662 -1.3912801669716683 0.5245151984979278
N -1.0084647649034815 -2.469346388152602 -0.2448260545138372
O -1.022345473126699 -1.3565864772797283 1.8321622730925191
C -2.8598844430603405 1.9522436805507946 0.421124212012151
C -1.7078612925664007 -2.7338768137113627 -1.4535137199619497
O -3.9825294017526196 2.21228562775366 1.2733839807023295
C -2.0483264325952666 3.1838335430277755 0.40983256689171105
H -2.322438778826942 0.43711796112086665 1.7409025972779069
H -1.7476356734572733 -0.0546473169152811 -1.141830131831324
H 0.20988876061641154 0.717072538886819 1.0867881728406399
H -0.19814866840885986 1.780306753587539 -0.2590485105217947
H 0.8662871521339569 0.37519074114156015 -1.8969308627390373
H 1.803297504537364 2.187626586592257 -0.2658318155140922
H 2.8726816251780134 1.2362623207117476 -1.391367661632574
H 2.408690787980939 0.44792720978388073 1.5059882812049172
H 3.768962202048571 1.5344546802271244 0.9168818558590689
H 4.809461293718257 -0.12960481737434962 -0.21368240983613668
H 4.120204641261269 -1.075750013050439 1.1410136791695102
H 3.360702236356276 -2.3360197087099066 -0.6637680996599293
H 3.301400409848154 -0.9636567100340503 -1.8095423777759028
H 1.387342856662585 -1.5720453988817216 0.4268619083449603
H 1.198649471886054 -1.841697064293764 -1.3659047789367564
H -2.607337148095219 -1.6052429170024698 0.6735079842041694
H -0.6541183380831466 -3.28935870049582 0.26361542559625695
H -1.0572228779052264 -2.2599562758864624 2.197529212002977
H -3.3702102881450897 1.9233045627676744 -0.615109752871619
H -1.296086001322342 -2.125017386832481 -2.268305191357273
H -2.797010980542134 -2.5005991343426133 -1.3485510468995112
H -1.6157174262603455 -3.81308045976937 -1.7384402567431756
H -3.7340733659368572 2.131638695619918 2.219493835560979
H -1.2513026371592484 3.2706032204663624 1.145603714576532
H -2.7525270028922333 4.079471853227648 0.6183261381945926
H -1.6632079063488518 3.4435462993217785 -0.6180738350782264