42
phe_c7
N -1.2462329507461714 0.7396698201000584 0.5641646017916734
C -1.0268560499458181 -0.3310473487908372 -0.3431058419602549
C 0.310155576140244 -0.9918225956783598 -0.25341262643606655
C 1.4935975436222084 -0.11986278342258518 -0.5016188658171562
C 2.7546094466035367 -0.9801638182818613 -0.3702522505028996
C 3.6716405101761658 -0.40937621371971755 0.68442201582893
C 4.003344883626455 1.0090934938742062 0.2419930141432168
C 2.77235367924082 1.8229838310617468 0.49426727265672565
C 1.4858425755146187 1.0674676973082118 0.3941797178928294
C -2.111505126475112 -1.3891983987139442 -0.22087470061834566
N -1.8177172483817186 -2.6149260063302746 -0.8715826624969512
O -3.3726219072908146 -0.941618147561164 -0.5199375639570223
C -2.1440646144032613 1.7264645068800142 0.05582729661494818
C -2.752846167303791 -3.632083588277831 -0.4641992036852967
O -1.7008771199108934 2.287252676443392 -1.1196744266889775
C -2.3271614859639964 2.8704866988276363 1.053613475794156
H -1.4268997935742345 0.4554221892995711 1.5448067236036722
H -1.135987808987517 0.08027575153107472 -1.3830115703273678
H 0.3277372531490743 -1.7874036285636443 -1.0418182068930255
H 0.4359504706789298 -1.5422699108345652 0.7145068501617977
H 1.4667228588707386 0.22925198025179186 -1.5625361417669963
H 2.465961786914078 -2.0414908092351944 -0.10700370986455568
H 3.3074912545643844 -1.0429172383835905 -1.3109475882471953
H 3.1947089853764084 -0.4245648737690186 1.6875552434860392
H 4.5870867374491775 -1.0429745961128818 0.7140152375548947
H 4.907059632022638 1.4043892908802893 0.6998980327104594
H 4.135114096824641 0.9792177785736026 -0.876348908390496
H 2.834760992763738 2.206311536090072 1.5467163653105527
H 2.7827985166432105 2.7189712157497925 -0.13814419088109195
H 1.082937527979242 0.754663176921676 1.3824762272128974
H 0.7433410098247053 1.8102890436773205 -0.029788023121673654
H -2.128243312379899 -1.630437217365037 0.8915303687223719
H -1.7766011755783178 -2.607537814593274 -1.9083309248768308
H -3.415183637963668 -0.6690533515801101 -1.474283145893647
H -3.179879449626375 1.3202138402777435 -0.09712682349694121
H -3.521440725650082 -3.2616330615772755 0.2395444464790525
H -3.2743245853717853 -4.03793761210826 -1.3514949328697832
H -2.1824314086253156 -4.485445641987099 0.01215860821084178
H -1.1054678331549643 3.0634415965658484 -0.8945290133550062
H -1.4199712557354995 3.4654497291909117 1.1823593325100508
H -3.1167045061178706 3.5183333885389447 0.6714359573591308
H -2.5801971747980192 2.4541154148428475 2.0645505341034234