42
phe_c43
N -1.7081577947546644 1.5350335527925794 0.31763730352047564
C -1.0163087768068795 0.2880142803053179 -0.08209230044539251
C 0.24464324412566177 0.2803353520954209 0.7486491148480656
C 1.1608469126984025 -0.8683025908008739 0.5359108323363846
C 1.6608892855406172 -0.9541885390085709 -0.8909223999291475
C 2.5445242635159646 0.22625457060074614 -1.2418806840188765
C 3.778563026229401 0.17328514245789894 -0.33528726706360745
C 3.274713646682753 0.39160304007477204 1.0759080654080044
C 2.3692090845103912 -0.7466010359183555 1.4560104676090215
C -1.930514600569289 -0.810131333071467 0.3836151720718671
N -1.4948615634549944 -2.143526296928759 0.12031364588938863
O -3.199741569029654 -0.6988119805753309 -0.2142988644158324
C -2.4188842254258143 2.1391284706679596 -0.7786024087246992
C -2.1542839443862527 -3.020751821187266 1.1034913209015726
O -2.996210474164896 3.36351477518989 -0.3606768407308444
C -1.4254232437606433 2.512744516953953 -1.8544030500029909
H -1.0611074777785932 2.1820488525779664 0.7788412678192863
H -0.8242514890946946 0.2744437601785706 -1.1532452459847136
H -0.005972559717212407 0.30395393046291164 1.8384487601086992
H 0.8445274684365163 1.2148063529673883 0.5767507944947841
H 0.6951634858444438 -1.8294106929566936 0.7869256794670998
H 0.7932153868840254 -0.9488315934154121 -1.5676885706046004
H 2.2589912976896858 -1.865179632710245 -1.0001233722872
H 2.8468208175242684 0.11149023124513738 -2.2957507416342544
H 2.06237876273548 1.197845343657156 -1.0926010253532066
H 4.450345787911791 1.0185584904880873 -0.5965226812274737
H 4.26395804707597 -0.7987733820147657 -0.39465269885791754
H 2.7517188757956137 1.350704886734623 1.2006593777663916
H 4.137350828966597 0.3781947847916385 1.7763976732916835
H 2.044400635889475 -0.6110157392784786 2.511086096328486
H 2.9138129209950963 -1.7059608140642821 1.412575926519503
H -2.083878028853717 -0.6880996418053308 1.4682503952405457
H -1.7437024921267095 -2.5058637058530375 -0.8284059797691183
H -3.674549795622616 -1.5670851133119887 -0.22529698857682098
H -3.2063504063471875 1.4995762067344036 -1.1860458146192752
H -1.3478026710646287 -3.4707737248823114 1.7305307473747062
H -2.7870463903947873 -3.776419950051377 0.6221335323918555
H -2.806508365516812 -2.453733080239699 1.7955146451378372
H -3.6274488652469024 3.1503004520813445 0.37583274732144195
H -1.416706271658122 3.6103161987781167 -2.064159038799272
H -0.3867084915644148 2.199865719320912 -1.6221309045251044
H -1.7796542817127088 2.061441756917405 -2.8306966882768245