42
phe_c31
N -1.1856428721490855 -0.7045943284153102 0.6709318140436815
C -0.7774026061018393 0.6002729422512765 0.5076742494662573
C 0.14181579929543572 0.9363116197786835 -0.6413952280208871
C 1.4706482605113513 0.2813902157626736 -0.6201299180297181
C 1.4138444691545604 -1.2193583918715767 -0.6183913573414925
C 2.83923521081832 -1.6776062349420573 -0.9724873602493075
C 3.7229007862539985 -1.2619050165157357 0.14880728422180006
C 3.7375653509956734 0.2154214754190122 0.41572980453446207
C 2.41339136186464 0.8674253163792986 0.40039501422347007
C -1.7370192595171012 1.7174940431757546 0.7058676888631192
N -2.8773709325467722 1.7919008125751255 -0.13636801105824947
O -2.212942062770225 1.6451890261060846 2.028884689382641
C -1.9580394103130563 -1.3985625364413343 -0.26117983701730185
C -3.419886841713899 3.1519071065659223 0.1102054432688133
O -1.934126917834872 -0.9629561561727726 -1.5430552980858414
C -1.5904288383382037 -2.8615175431829862 -0.2101675385605328
H -1.068695868846309 -1.177974472292719 1.5575532578686213
H -0.05457238999684901 0.7481155014001701 1.4109614900178191
H -0.30221428979573584 0.727290130267852 -1.6383114300269601
H 0.3170502154452693 2.0482777820990714 -0.6256997718693982
H 1.9518176170243844 0.5481172540089062 -1.6155142182089854
H 1.2093968338824865 -1.5640764534664486 0.4166931434971752
H 0.7073437378225426 -1.5620429850153337 -1.3660489658796802
H 2.8341094690666533 -2.7901875530737805 -1.014002452861214
H 3.1536700395714825 -1.2416844997598417 -1.9379985132732114
H 3.4380682951692734 -1.8320580918190745 1.066926871865299
H 4.762966662097125 -1.5592110177551375 -0.0874545357689676
H 4.403866280720668 0.6764344747075943 -0.36726777790796206
H 4.2852697531471255 0.3648722651326944 1.3678220142503987
H 2.550807334433843 1.9468077701763733 0.09867381988220943
H 2.01152036232941 0.9034328170266526 1.4223199374216335
H -1.1668056557574502 2.6884455001565777 0.5823129912482994
H -3.6850614001424837 1.1781337433096386 0.14118701465479766
H -2.3997238539119827 0.6892960302199898 2.1950565377140516
H -3.0403404302626242 -1.3578995895216794 0.07246957929706753
H -4.366700923750277 3.325644035462537 -0.37911561270694716
H -3.6043583163605906 3.1690007575188597 1.227085971830429
H -2.6364782069743353 3.917086802956739 -0.046219990804387434
H -2.803666078577673 -1.1267058806419956 -1.9718405788829543
H -0.6214009377932928 -3.052808619388185 0.30418531227142914
H -2.3385892149088114 -3.448037722422079 0.39626436286518535
H -1.583820531240675 -3.339080329759422 -1.1953598961345906