42
phe_c41
N -2.5563505485538096 -0.4882718096228905 0.13486037663712347
C -1.6511630216717852 0.43236934555003714 0.57517453361172
C -0.31221371176064366 0.13554621301505712 1.0956662132387123
C 0.7388805914950589 -0.5628929958642853 0.3621533028122743
C 1.9768563800390746 -0.52970357893221 1.319828683385949
C 3.0300552566416767 -1.466928529585333 0.80752398140903
C 3.490558189259601 -0.9853239809577709 -0.5406758369270918
C 2.664630370150188 0.19185104938213055 -1.046594170823588
C 1.1770069793510594 -0.1436751142002779 -0.9675225667930519
C -1.691834284235072 1.7597730738908925 -0.19430057490522595
N -0.9995463313856882 2.8525339938778007 0.28173328491136373
O -3.072296679881064 2.2096306620975232 -0.13854043391836113
C -2.6505243356186092 -1.3919064057083153 -0.8675602803622361
C 0.3288243986607795 3.105885737494622 0.4527823464334756
O -3.9368475779690435 -2.0191244158562007 -0.9635266243343955
C -1.6950472842922304 -2.534169782335626 -0.7537105246572351
H -3.4902662833712004 -0.5026710261210732 0.6800308230198585
H -2.179387798655251 0.834043000629095 1.5642152443893211
H 0.15508414546033356 1.042674819238538 1.5909955400321856
H -0.5265031695069852 -0.4841360845342929 2.085336996894685
H 0.6030379595418222 -1.687205370897829 0.3160632328369215
H 2.370408583268924 0.49373016723779195 1.307123727434491
H 1.6287407714601723 -0.7891412147893493 2.327617501764148
H 2.7023367825887936 -2.524150309612293 0.8130498290410406
H 3.8872860144974233 -1.3991157611867167 1.5046105142990542
H 4.542920821968375 -0.6482975794419022 -0.5302872448671941
H 3.4372338187296654 -1.8410037709577796 -1.2410309526855696
H 2.9454107426833684 1.1066334429813216 -0.5446451542817583
H 2.8956730670545885 0.29235653918145305 -2.1243179655169584
H 0.652608508701027 0.7064801129444516 -1.4266307159815128
H 1.0807020141715231 -0.9703349576925802 -1.7545297809512277
H -1.5317655783257007 1.5636761404000925 -1.2408271161063962
H -1.5565577478220796 3.370096797481631 1.0312274273827884
H -3.3287325298938177 1.9822135520950384 0.7784351972144724
H -2.505133793773427 -1.003806395918803 -1.9177502428916335
H 1.1033262250072209 2.485893172396216 0.001631395206313131
H 0.5706592813560999 4.148550423727568 -0.0030987128066496403
H 0.6354793125892356 3.3283304758066192 1.5393743801534503
H -4.481921176934816 -1.4098631694475163 -1.4830632003492754
H -0.7974088466819473 -2.403678217369772 -1.4096913829166389
H -1.459590177187263 -2.810513521370647 0.28832827037873604
H -2.19462933715505 -3.4463547270241026 -1.2116388159386549