42
phe_c40
N -2.390865859675124 -0.4504515899230446 -0.38779175568568997
C -1.2512006327399878 0.21329236078862623 0.15352129134036355
C -0.07198606110674746 -0.6442397961512107 -0.02398200552783429
C 1.2913463933123972 -0.23441886651706506 0.3947562945383671
C 2.169140324318797 -1.5004151791348141 0.09023415422244015
C 3.498479991067602 -1.3257351338482943 0.7874351963664545
C 4.184070810069259 -0.04762880365326249 0.3199458272778464
C 3.3999851608986744 0.46608282238534643 -0.8465348233012978
C 1.9656325623110404 0.826851492217984 -0.417214861249031
C -1.268696467718131 1.5801016170854294 -0.4800171830282274
N -2.5971770657259814 2.184795973758291 -0.21291600591961726
O -0.35125255416310913 2.48334081823632 -0.08458467158182034
C -2.944317310033385 -1.613697258547886 0.07112670702732965
C -2.4814475941429786 3.5699118617665047 -0.6304157358689598
O -3.5202688440764844 -1.471311944442694 1.3882412066520426
C -2.2490144665084104 -2.9190157513270374 0.02727790970111023
H -2.7163116375427614 -0.058904720598043324 -1.2979277266261104
H -1.4224028774113666 0.4464436073326043 1.2656127282812726
H -0.07973924370069568 -1.0457344862049038 -1.0736410073087364
H -0.30103549709678046 -1.5855961229847004 0.6009877594522816
H 1.3898320375272046 -0.10945906610084082 1.485638335952442
H 2.29288712242002 -1.5486723353233391 -0.9817702314831589
H 1.6941598589434543 -2.391624215734698 0.5469648555126506
H 4.129594832791283 -2.194397440022474 0.5551242031324491
H 3.3847713486102027 -1.2426410747131678 1.888307115746322
H 5.215944392812129 -0.27385125413165656 -0.06528222149189804
H 4.288849614201735 0.6724399884391099 1.1320838764619088
H 3.4300453893145053 -0.13078733459549952 -1.749645210767776
H 3.825640407900429 1.4835565706958411 -1.137476225990888
H 2.0747470106544466 1.717035363002101 0.23952357532782736
H 1.4764371012252824 1.0983617848724307 -1.3493037700128518
H -1.294538290118803 1.398331973529549 -1.5800900480257671
H -2.7148669392118703 2.191237848659153 0.8270318585731059
H -0.20077295173049367 2.4595757581698496 0.891998990100648
H -3.9110784323983037 -1.7733294891742286 -0.5398403365023672
H -2.6378366860177187 3.731354979449979 -1.7012797767419643
H -3.2577188096092615 4.209182079429665 -0.11313554899781446
H -1.494410758957147 4.012307503483432 -0.31101846507775777
H -4.261370785649053 -2.137364619076095 1.4801567857930538
H -1.475279603849711 -3.0359014072495247 -0.754805602280482
H -1.8090460199453011 -3.2733878704448625 0.9845912748558754
H -3.008928969249021 -3.735638643402984 -0.2532537693053857