42
phe_c22
N -1.4739840271789575 1.1379347879567983 1.2527368529247043
C -1.2613127621900448 -0.07353378320156642 0.5381957329362387
C -0.19515408730398462 -0.10178195720252506 -0.46457442292111933
C 1.2091271076719188 0.19347832819626298 -0.14768242297850764
C 1.94010683656823 -0.6262364953628238 0.8338399864123057
C 3.388143084708275 -0.2775355719182137 0.9253809586099594
C 4.092064462887223 0.185082420194433 -0.27241147737596993
C 3.2291057535836463 0.7128742041327646 -1.3799012348902415
C 1.9525031294484712 -0.0525039283235837 -1.495621300775574
C -1.5058860113854071 -1.312782051671747 1.342550221562029
N -1.4938193462401697 -2.52064504924699 0.5211827315840906
O -0.7567766640922988 -1.462518208728044 2.4730304618769146
C -1.8841717508115297 2.263856010924079 0.4425770295883715
C -2.579238467394537 -2.4750074513279574 -0.4321800445206493
O -1.905546329924694 3.446945242889871 1.1893395911042237
C -3.2081334782038686 2.1054937107669787 -0.22784710569723574
H -2.2101722464629794 1.0017524332884806 1.9802660982373952
H -2.2497718950087697 -0.08754187846868737 -0.14506999659532355
H -0.4611615752714922 0.6108294071868813 -1.322506085833088
H -0.17780119933983407 -1.0927721972082785 -1.0364463081023056
H 1.400790770253314 1.2712594375741717 0.09958040543494484
H 1.5476833423756553 -0.5172514109514953 1.8772098221687197
H 1.861797792678609 -1.7188548590823614 0.5834081573386509
H 3.5380721215750457 0.4399200150913143 1.789988044410297
H 3.9228924119288697 -1.2043040774502292 1.299762935941755
H 4.811777358400578 0.9850360858311357 -0.005529774954665436
H 4.731538138194986 -0.6280006449335938 -0.7265612772726239
H 3.003433653218233 1.795529870378281 -1.2654447804230606
H 3.771739369452225 0.592457569133607 -2.3468507635829665
H 2.2172999076692332 -1.141052981357335 -1.5485307463559774
H 1.340761216699959 0.2701942119645408 -2.341601633464323
H -2.595930625601414 -1.282646427110335 1.7109357562712437
H -1.6217787361977745 -3.373635268709485 1.1009469333241992
H -0.3642795443957087 -2.3695787824159225 2.5542886787618144
H -1.0987685068435087 2.3636376460477013 -0.359596694019619
H -3.0862899475055414 -3.467229766489395 -0.4831905792541085
H -2.199652122040766 -2.284260141330518 -1.4477882556437789
H -3.3876050847395645 -1.7586406538054133 -0.15623198819283873
H -1.5358849264499643 4.172792768394592 0.624553448343044
H -3.8719704357302693 2.977513078638953 -0.002472507294051539
H -3.06909834065599 2.111249603109106 -1.3350978943044087
H -3.764648346344495 1.1904767545948833 0.025326778931972427