42
phe_c21
N 1.8711629505087057 0.4103832518558736 0.8405619546756217
C 0.8261639191567274 -0.3439647964999533 0.29701014174466844
C -0.33192569011679146 0.45586018573712905 -0.15351288971804908
C -1.4963071255074234 -0.2992085323493556 -0.7271932021096756
C -2.135422489397761 -1.2822439767826515 0.17325396823864636
C -2.8644520909133804 -0.7299389882436301 1.3509504543321238
C -3.651409491708577 0.4931197387114747 1.0000469423596299
C -3.8894089363605167 0.4684770085061749 -0.4938040229666195
C -2.5402688140984915 0.7385891710794563 -1.1478665509740533
C 1.3030821006776472 -1.3351161417143576 -0.7743825945284338
N 2.075456390192481 -2.3710154006119586 -0.1255647726930008
O 1.9139920693431087 -0.7327326710080068 -1.8376796259127612
C 2.6250693887090892 1.3643634735599375 0.18377539600214493
C 3.2684468370060347 -1.9377680265022825 0.5172145052540397
O 3.6848263669361305 1.8485241180240615 1.01642730414337
C 1.8682666940646688 2.5994291128549354 -0.22604473356612134
H 1.6667171272361117 0.6413179924624863 1.837381680681424
H 0.5241012649485293 -1.06547207968537 1.1409353704829732
H 0.009863699670837367 1.1170732409961075 -0.977579081909667
H -0.7256558111936436 1.1201749305504112 0.6403773561411373
H -1.19839044339831 -0.8005282750944301 -1.6643357815232072
H -2.9088854888818205 -1.8297748183500433 -0.4478481717882039
H -1.4234491022312756 -2.090095609099777 0.47266700624298164
H -3.6061087873902777 -1.5080738993835725 1.6864149178581498
H -2.2474422105560636 -0.5137311809705906 2.237899951045949
H -3.037423304034075 1.387571916904656 1.2149878452138552
H -4.602509009014951 0.5948873554058276 1.5688211691867424
H -4.365839230473633 -0.4595504332086338 -0.845466899937554
H -4.536469958115881 1.3159756781525056 -0.8025148561894613
H -2.6332994993227765 0.8163199343986485 -2.249715785969647
H -2.2549768785923816 1.7607625272229397 -0.8078035879287915
H 0.3888156731822367 -1.8525554459066504 -1.1473548661406634
H 2.174777440016332 -3.2359329837699704 -0.6717254174806441
H 2.8135763547182537 -1.1147703518316094 -1.9780860548187722
H 3.1318717772384863 0.9306607910344298 -0.7514812743576291
H 3.0685580386840483 -1.5319908993222502 1.5322049133554667
H 3.867924605234062 -2.878924708805386 0.72119359144679
H 3.873120217109077 -1.2361189039955784 -0.10131288603596628
H 4.389377866692257 2.133912566439504 0.39679351672631125
H 2.4810781620370643 3.5388443986529947 0.028689964584101207
H 1.6671038826986053 2.6652589601130536 -1.3060011923347874
H 0.9562915352473285 2.748001770474108 0.3796662991675856