42
phe_c24
N -2.424695285416529 -0.45420501973245797 -0.24752721526367133
C -1.233706779242322 -0.03311801380499501 0.3879185775932121
C 0.0030788886545660477 -0.7737387098598445 0.05559705178955937
C 1.295011030107524 -0.40891605775649637 0.6879666075263623
C 2.329018494017368 -1.452892403560284 0.1457909067460473
C 2.868680784419963 -0.9549597531313934 -1.1673191266326206
C 3.9006747557538684 0.13164353074151455 -0.8754696189368054
C 3.4453801166282925 0.8403777747948583 0.36105720967531596
C 1.8899151150202975 0.9287271039878893 0.4091606642618317
C -1.0731351643239637 1.445026723798847 0.023532871677480357
N -2.34927860382669 2.140836099736459 0.31650898792930077
O -0.9538419338842555 1.525051408453296 -1.3537404411800733
C -3.0272816899819186 -1.6817627737294294 -0.11258773404244173
C -2.082201743751661 3.5459391472850137 0.0705881490716857
O -3.3722597585190037 -2.0240506013553925 1.2175789648435018
C -2.2756422230367783 -2.851407919676475 -0.6794015152435677
H -3.008592813296794 0.3265595745910619 -0.6292946612868692
H -1.3680207324745473 -0.04342220131954226 1.5231735830201436
H -0.17544017056678826 -1.8843491717314653 0.18749142261710744
H 0.1687418725053253 -0.7080904418299145 -1.07345471060233
H 1.256208219987844 -0.5928344777493827 1.802737971794334
H 3.1263395677449113 -1.4851650543214683 0.8932912560740489
H 1.8067169542988275 -2.4206360871466077 0.035164455217432035
H 2.068950081048417 -0.5077604505186176 -1.7640189697155984
H 3.313325498176432 -1.8009467754355777 -1.7228783799689174
H 3.9809311497223225 0.8046791898152864 -1.7449465678073965
H 4.890655964777144 -0.34732212644714994 -0.7094963931127717
H 3.790197736973408 0.3910203272341686 1.2984429185253024
H 3.766176917815556 1.9093922866331672 0.30659412979012346
H 1.5747504836965127 1.3776397027894636 -0.5247858249999219
H 1.7438688819317425 1.6054876960992073 1.3029235804404866
H -0.33308349755212086 1.9412152940101965 0.6031738793801632
H -2.646080177282134 1.9432336578743141 1.291164628609872
H -1.8425956755543116 1.5385162228667701 -1.7701311957669141
H -4.039270290757128 -1.657235760189452 -0.6506785439753333
H -0.9894892349483846 3.7562688370619095 -0.021260819009154983
H -2.4783878460655675 4.184525605119248 0.9109508867999327
H -2.5384622314497673 3.8463014084029035 -0.8896441117528986
H -2.6013149120243 -2.5408185105597716 1.5597613155081802
H -1.8161591805693293 -3.4399063663966354 0.13062126529975862
H -1.5787910579086633 -2.558249754868219 -1.4693482333580845
H -3.010891510847471 -3.5606531601751064 -1.1854114562832816