42
phe_c23
N -1.0231500611486342 -1.272086586128769 -0.6525940563858394
C -1.070094297684437 -0.06108038496356133 -0.0007110285644185382
C 0.12490521875736907 0.8224842770085532 -0.32356748517000067
C 1.4341059803670235 0.1839293722643387 0.07648584713323556
C 2.5120478572079263 1.2043625544054954 -0.3226476956415997
C 3.884242109954008 0.6850406226523648 -0.020889453188466366
C 3.996082702959589 0.6270749660666437 1.4993130349983284
C 2.953511355989321 -0.3655798604590373 1.9652050972840334
C 1.5602437530563786 0.016308217127850324 1.5729837102116961
C -2.2854058780461197 0.8046539739725123 0.015291919426162644
N -2.805086767594033 1.2209077288778545 -1.24482684453338
O -3.3904842590841615 0.19966532586778057 0.6688535802420313
C -1.7703569492071458 -2.400945968037691 -0.3937986063143744
C -2.0599721417160803 2.0487119675096586 -2.087467262864404
O -1.5733577536881538 -2.95748152898763 0.888503310584808
C -3.2475292631111197 -2.4008594181163003 -0.6177210886049085
H -0.15717103472436902 -1.4318621889113925 -1.2513019216589918
H -0.8786503720645817 -0.3113453779055407 1.1269941909056327
H 0.1671209142463258 0.8893440394981494 -1.42848291741133
H 0.012463254360079517 1.782877397578315 0.19199548589084361
H 1.6370707958109374 -0.7595670367015739 -0.4280211491213375
H 2.3450428381749333 1.4007157606491805 -1.404869944499124
H 2.3173053568316018 2.1389890273199743 0.22391289956955626
H 3.9671953627342056 -0.32910138493012764 -0.43755981349400225
H 4.610871382598307 1.3948024390528662 -0.43784875036619536
H 3.8680734773930014 1.6281232949983921 1.913359681264945
H 4.998964022453272 0.22782024023540765 1.7457646831054725
H 3.258663756770557 -1.348341958613214 1.5761948304595974
H 2.988736684431942 -0.4135388626248515 3.0749502922682956
H 1.3212273225444002 0.965650429381816 2.098478033728887
H 0.8913858524020963 -0.7825275470039879 1.9546955621176136
H -2.0458783186829197 1.7447755926968476 0.6354970355693846
H -3.6151211561229193 0.7247337438060426 -1.5762573662937258
H -4.162627580960527 0.7897172245000661 0.4986909055255471
H -1.3718133917193378 -3.2395461207142895 -1.0682962475747042
H -2.7867318910938828 2.676821015886932 -2.6832531591453055
H -1.3279099622193196 2.6760385309039494 -1.573372299688686
H -1.5972027063593688 1.4000686261586675 -2.8858826723194575
H -0.6490918468659929 -2.799999698436813 1.2033367397502137
H -3.831439879992085 -2.395388626533091 0.33992459531206776
H -3.641313738842874 -1.6185580718052688 -1.2701278780631333
H -3.558870748115043 -3.36580574754658 -1.160933794444834