42

 N    1.492829268343   -1.230385869482    0.451509460262
 C    0.725326409991   -0.092555998628   -0.063840080890
 C   -0.434715270340    0.201564839105    0.906694047176
 C   -1.425103746648    1.333632358383    0.574056719149
 C   -2.205428817390    1.122550883709   -0.736406500182
 C   -3.259492780115    0.013296944472   -0.642391918478
 C   -4.229899782347    0.260929231764    0.515978384361
 C   -3.483229092818    0.445157568855    1.840029708594
 C   -2.420169496161    1.545007767773    1.732927558621
 C    1.653903753728    1.112444244620   -0.287827082748
 N    2.908727928189    0.686175026778   -0.856833224501
 O    0.996818543460    1.979633033233   -1.168724458687
 C    1.636027433266   -2.380879323779   -0.420994848770
 C    3.854245656203    1.754704675118   -1.099663356790
 O    2.599364498006   -3.235569583219    0.121956681293
 C    0.379186594617   -3.220155129266   -0.597401173997
 H    1.141295570926   -1.534640042015    1.338090075315
 H    0.330945213836   -0.337144898589   -1.043564690504
 H   -0.977830264071   -0.730298021316    1.029763118486
 H    0.006258468171    0.418213703479    1.879850336081
 H   -0.855725033735    2.248618650374    0.467983362042
 H   -2.712434684418    2.055792939672   -0.976669447138
 H   -1.523859495829    0.934114206093   -1.556896406624
 H   -2.778584201481   -0.953836195896   -0.509576035086
 H   -3.807012597864   -0.047581177621   -1.579248220073
 H   -4.940149884015   -0.557853142371    0.595890873826
 H   -4.811507007314    1.157672797547    0.306951483457
 H   -3.022273161687   -0.496613927144    2.129205260454
 H   -4.184769916596    0.694255218707    2.631939229179
 H   -1.883401888905    1.637214454555    2.674356529248
 H   -2.926547611866    2.496046402311    1.576256511842
 H    1.811588392587    1.631526240935    0.664874638442
 H    3.302705553362    0.004688595413   -0.242498708009
 H    1.359723014350    2.850785093083   -1.102430453542
 H    1.962570375986   -2.003690304220   -1.384073731595
 H    3.519911902031    2.369377096989   -1.926809156865
 H    4.809416321166    1.328878356082   -1.382047896746
 H    4.017808572870    2.404376913919   -0.233809747516
 H    3.375329500294   -2.725036430070    0.310849628322
 H    0.053793743499   -3.606469987086    0.363557722665
 H    0.581107081301   -4.061807439322   -1.250015559879
 H   -0.425027453603   -2.635626375232   -1.030828710004
