30
thr_c11
C -0.17269887174590123 2.0957602843684704 -0.2683064324979272
C 0.27603592708531155 1.2044337417010065 0.8546722941514444
C 0.14240090288728277 -0.253505417767692 0.564227330802781
N 0.8496088617016028 -0.8149551691369837 -0.48929171356823337
O -0.5173505414850054 1.5551276221037165 1.9838691394035293
C -1.308297395965927 -0.6956377323729621 0.4872426623683656
O -1.399034425294238 -2.092480208108082 0.5622452911424726
N -2.0036307371033493 -0.26442457567397526 -0.6785433604645698
C 2.2384833000941073 -0.8890278360854346 -0.523924061327764
O 2.6527871074437357 -1.6202850363435524 0.6284096708928693
C 3.0023604036592184 0.3812259586556189 -0.5514636119977264
C -3.3813117504904833 -0.7632089279302856 -0.5564193876883005
H 0.6455959770532685 2.817042414352233 -0.5515806271281669
H -0.5203805357654032 1.525152377686932 -1.15341412558237
H -1.025011089258873 2.716873233303855 0.0597715653545919
H 1.2998677585638403 1.5001236475319615 1.1396711246462974
H 0.5125599894391453 -0.7653562255031539 1.5234591784800222
H 0.32557529506086047 -1.1938482217678943 -1.2982795751143026
H -1.0267968071649902 2.3701021374090705 1.8305472864170456
H -1.8836481226421224 -0.3239388938933951 1.3745998540749609
H -0.7607270872546871 -2.4782381100142175 -0.11803065171951493
H -1.6176906715104868 -0.7029685567306677 -1.5333372977075361
H 2.5238934325820304 -1.5524901571106144 -1.4039664286972944
H 2.670211922399295 -1.001833738663192 1.4061363007105983
H 3.3883855441108004 0.6652284759659567 0.4583767857555993
H 3.89953950064858 0.23989833990711884 -1.2111846393380628
H 2.403164428249919 1.1817829996734255 -0.981713662990917
H -3.6929163767868363 -1.275903548166084 -1.4965031734996481
H -3.429377930660365 -1.5796199580007233 0.22335328303173047
H -4.0915980078503305 0.014971080609337025 -0.2806230179100256