30
thr_c4
C -0.081088297187882 2.3978008544236555 0.7253630471232996
C -0.315987699966356 1.525352649013869 -0.46183154891650435
C -0.13874735082482523 0.052846167229017936 -0.20208131579456348
N -0.9491516599301018 -0.4720790936865917 0.8508521509153404
O 0.515555069209812 1.9438797255980973 -1.4996098093803756
C 1.3233077554032138 -0.2371963172421996 -0.06538796696321218
O 1.9867613015191525 0.34157195588120354 -1.163560639471201
N 1.6215968976806345 -1.6564694108481155 -0.06841510809373483
C -2.3597363626850627 -0.3483943669572196 0.537949798771686
O -3.1343531739309904 -0.8826029401106501 1.581280422308188
C -2.672353733804491 -1.1701810744036796 -0.7001083713305712
C 3.0662383475230195 -1.7685041105047632 -0.20933368605266417
H 0.7684538370685509 2.061249358841934 1.3487400671993082
H -1.0109550669881242 2.56734432301133 1.3095037663370963
H 0.21568938722125475 3.4020684007459945 0.32933991755286296
H -1.3701442217021083 1.6976042944731407 -0.8057507533438915
H -0.4657793434093862 -0.49966790770277947 -1.1355802605626517
H -0.7953959606213312 -0.040029046558946124 1.774204895603929
H 1.0992885672509192 2.686882851922047 -1.2588507326544132
H 1.7664719633410362 0.19183639475880926 0.8444972510577128
H 2.8664345310731876 0.7194897469584057 -0.8710261595797876
H 1.4219756548759805 -2.0093539156383673 0.9150418314870225
H -2.6738894630193166 0.6788746597848382 0.3642367944269996
H -2.813605062125426 -1.7867689236707966 1.8430925426179199
H -2.48672044048885 -0.5285416258236582 -1.587552957762807
H -3.7553607196130043 -1.4333818207164737 -0.7400176563760192
H -2.0322059744222725 -2.0539722830869453 -0.7355097707628419
H 3.379911549733748 -1.2599855274900376 -1.1682843282994977
H 3.6331632889231504 -1.2891067382764307 0.5963093199745909
H 3.390626379895956 -2.8305662799247546 -0.3475107400312547