30

 C    0.024033825746   -2.321053264701    1.482891540971
 C    0.723800319693   -1.632333925424    0.317596789205
 C    0.250335258755   -0.191253380489    0.070795984143
 N   -1.191626147132   -0.111738729477   -0.140693072406
 O    0.523736230801   -2.368829270623   -0.869690602240
 C    0.999687094154    0.382912764737   -1.145793456743
 O    0.412575457545    1.625099126038   -1.462925559416
 N    2.418055294291    0.458904957599   -0.909586176597
 C   -1.976410102384    0.364274284192    0.954165941506
 O   -1.596144366478    1.685554435225    1.288916150250
 C   -3.453603044635    0.310810978492    0.592672595946
 C    2.902928327895    1.539887150867   -0.068545092870
 H    0.445428844703   -3.312008251407    1.636315421345
 H    0.151873812558   -1.768014441573    2.409000792152
 H   -1.032420177221   -2.435091958696    1.276433938476
 H    1.786805537754   -1.579174262306    0.529330977827
 H    0.525398546016    0.397183488475    0.939810866465
 H   -1.378593843301    0.466599505309   -0.934049681974
 H    0.910348124811   -3.227273246849   -0.770821090986
 H    0.858725711327   -0.299509298241   -1.972922863836
 H    0.738509839785    1.917668977766   -2.302838655416
 H    2.913337782370    0.449166132606   -1.777976354219
 H   -1.793986299394   -0.273897916886    1.812024635089
 H   -2.059751331229    1.962191945007    2.067587955474
 H   -4.066306276960    0.669943786392    1.415267605928
 H   -3.648151418269    0.942029026068   -0.268629535982
 H   -3.751924980706   -0.703822133090    0.357542262602
 H    2.505085976371    1.445179297954    0.933355461940
 H    3.982020068377    1.463383238545    0.000613546607
 H    2.646618314327    2.531313450873   -0.432903083557
