30
thr_c3
C -0.017694600147457693 -2.840781868835994 -1.093620854541072
C -0.9184658902715271 -1.8301903944297515 -0.4152045521182701
C -0.21182633743361212 -0.4944633699606163 -0.24837134625426932
N 0.829878053559962 -0.6705609559857135 0.6558336927478872
O -1.4337929606216968 -2.3263630843169167 0.7717133331953324
C -1.2561449122296788 0.5245948964456606 0.09365892144269371
O -2.254966302035479 0.5995373848407655 -0.8846705859634418
N -0.7223473722599212 1.8659513627309803 0.2205404798696012
C 1.7999101408382272 0.27953594125478287 0.8983240699877939
O 2.597874705138684 -0.14481260246483296 1.96782882820286
C 2.7136339464145744 0.6884567033966088 -0.2039368599728928
C -1.8954024328491565 2.731599779069819 0.41410744827124446
H -0.4688724691794184 -3.8327840435291964 -0.9618590588832963
H 1.0256417182857296 -2.7897119332384555 -0.7139812007660395
H -0.03867011826737348 -2.5859686377003808 -2.190608178563672
H -1.8083046308394477 -1.7222387704895898 -1.0957174566204213
H 0.1052333992894017 -0.24067932847668205 -1.3002624022089495
H 0.6782220070156295 -1.3733182236047554 1.4037404478535076
H -2.048148340214761 -1.6703133585953398 1.1727744104359639
H -1.7790926825505555 0.3363039132056062 1.0531952728895528
H -1.9369054663985121 0.8950633416129278 -1.7544054525130421
H -0.21719893056739525 2.2012238924471834 -0.6066088080226372
H 1.3133028012883887 1.2258332101728884 1.2788423937888334
H 3.55411743208509 -0.025147772913110048 1.8096412778770288
H 3.07164064346632 1.7307450494269807 -0.06455142754176664
H 2.3012710180156963 0.6205414910594789 -1.211672940199758
H 3.6486959865905324 0.057512373254289983 -0.20017302547058152
H -1.658504133426079 3.625157350944101 1.0069667043909412
H -2.2279815010180064 3.01047160287982 -0.6288091264303134
H -2.745102771678206 2.1548060517994214 0.8272859951172331