30
thr_c8
C 0.363821830190093 2.783099249711904 0.33453373453558355
C -0.6686148895197899 1.669987679799445 0.3334272563233444
C 0.07438590327791264 0.31998044247982077 0.3726422348581605
N 0.9233565575867413 0.28527591824568305 -0.744386786657605
O -1.3822442742060823 1.7063634481726238 -0.8613733450997212
C -1.010285207106443 -0.710162287446633 0.4544169708095682
O -0.5673668494865821 -2.0179741526694333 0.47748642116555795
N -2.0595235579788915 -0.4996792829924094 -0.5254061023077174
C 2.0032385034468505 -0.6120919293603923 -0.797023884364527
O 1.678739885831519 -1.9653500140581586 -0.8538669948092465
C 3.0599548365856775 -0.42603085290037224 0.25657145408674886
C -3.055991724692773 -1.5289932354453204 -0.3997616665643852
H -0.1744521089271223 3.733890250827692 0.2712448355745429
H 0.9355983797227513 2.723905275809545 1.284529797133961
H 0.9902081263081435 2.673322073878969 -0.5574915537806914
H -1.335937578235796 1.7806960719379563 1.2151792080302528
H 0.6064726746410887 0.3238481216126081 1.3495178778954564
H 0.42195750394246845 0.30195500170117473 -1.6348719001296579
H -1.3133478331409953 2.6225127667390167 -1.2302101286077336
H -1.5185990368934787 -0.5452513412196707 1.4539425872929856
H -1.0114920069660691 -2.611792181544143 -0.149526983581631
H -1.708980821221287 -0.5168271612190053 -1.5070402046960025
H 2.5353972643257627 -0.417160032034482 -1.7788218322053095
H 2.1396563613611153 -2.478430882358054 -0.12475293184027464
H 2.748680477554917 -0.7220211065535637 1.2644756525112573
H 3.9131036101016696 -1.0823194662411513 -0.02242273881683993
H 3.4584265452269563 0.6197007004527362 0.2086290923680471
H -4.03522911921832 -1.1462137582154501 -0.7595400915068687
H -2.8309225570640386 -2.408660119923097 -1.0651975163508496
H -3.1800108954458457 -1.8555791971876594 0.6445130956985133