30

 C   -0.889206407288    2.697886692638   -0.303377311133
 C    0.011514300045    1.530495945726   -0.694267031302
 C   -0.086623690365    0.300643090323    0.228224887571
 N    0.924618570113   -0.699497274438   -0.077361128722
 O    1.362937679617    1.939425821377   -0.662670962399
 C   -1.449689980238   -0.408478563515    0.211484840351
 O   -2.392137728314    0.403586102639    0.877002651872
 N   -1.853044852615   -0.780131834461   -1.118621864960
 C    2.151069830550   -0.642512457386    0.682034165308
 O    1.925517019529   -1.167907600507    1.963939742380
 C    3.243278784751   -1.414273287792   -0.043397919486
 C   -2.886374631296   -1.794286234000   -1.193921501421
 H   -0.701329758098    3.541797145406   -0.964387551567
 H   -1.938048803781    2.446606867263   -0.367071031961
 H   -0.677601486561    3.012023966489    0.712559841724
 H   -0.227626446120    1.214984533022   -1.709117222738
 H    0.075541854150    0.628183762981    1.247589628139
 H    1.092408091706   -0.756645043185   -1.059699881111
 H    1.467825927357    2.710670628814   -1.202151896658
 H   -1.308134369926   -1.325273352731    0.769334813023
 H   -3.145117857776   -0.114566193057    1.123359387225
 H   -2.144301708337    0.034656978269   -1.621656659933
 H    2.480814541713    0.371204865221    0.859106549138
 H    1.488491911467   -2.003232771681    1.855687544543
 H    2.919879149645   -2.432064920533   -0.245532889427
 H    4.134467489303   -1.452011093625    0.571433199994
 H    3.495323223962   -0.939726315216   -0.987020673007
 H   -3.105191793187   -2.007017640497   -2.233398877472
 H   -3.825042176989   -1.519107427275   -0.707940052916
 H   -2.526541921806   -2.710352124156   -0.739517672929
