30

 C    0.079985208339    2.164101515239    1.604007859178
 C   -0.721262278929    1.224216056979    0.708941105447
 C   -0.036313864181   -0.125326347140    0.383794106793
 N    1.050617344012   -0.090480536424   -0.576956321686
 O   -1.125423569975    1.887886283151   -0.473686095920
 C   -1.048192347788   -1.151791326221   -0.169774649304
 O   -1.553163055690   -0.762650262443   -1.408080480110
 N   -2.131220731132   -1.363726773521    0.764074262784
 C    2.357991187884    0.471061418406   -0.326267992157
 O    3.144200227803    0.184404964547   -1.445584569843
 C    2.992902706714   -0.085614440489    0.940438327194
 C   -3.045752846654   -2.425234971623    0.379844665555
 H    0.343547398307    1.682510174590    2.540559108356
 H    0.995384802997    2.505103112320    1.133218610392
 H   -0.519115615505    3.038696477589    1.831372632571
 H   -1.646866550581    0.994423814558    1.214828627679
 H    0.346852251034   -0.531830384985    1.315006452017
 H    0.724028284089    0.160238450577   -1.487707792280
 H   -0.361609293470    2.198851882479   -0.941541996618
 H   -0.498422155891   -2.067504684611   -0.371714387422
 H   -1.939598539634    0.102158645110   -1.319565909799
 H   -1.757666642558   -1.557685520351    1.673223046709
 H    2.367401554436    1.556335945931   -0.277508436494
 H    3.077004341829   -0.747639391879   -1.615757627227
 H    2.987829222594   -1.171359023186    0.914632631114
 H    4.019524066694    0.256037826809    0.995723089889
 H    2.480796745330    0.238712016753    1.838787388292
 H   -3.803685671660   -2.534614331265    1.146541941598
 H   -2.553855679600   -3.389868375598    0.240253391891
 H   -3.535205969516   -2.162543047624   -0.546502115030
