30
thr_c15
C -0.8172246628928195 2.591412414089411 0.09715298640603537
C 0.2589255685729225 1.5593287127745423 -0.20923302645751268
C -0.10335267057066931 0.16374778455100764 0.1563375216250251
N 0.8536913844589276 -0.8009740591898125 -0.15317322815292927
O 1.3916853766208148 2.018015713743343 0.4870684671594873
C -1.4451149036907256 -0.2448763954000212 -0.5178200075849494
O -2.3875680222420095 0.7123842285600256 -0.20417732768738392
N -1.885345969786455 -1.48099579110162 0.08852760737002764
C 2.1422432582461433 -0.9585446870821972 0.30167657415596366
O 2.635754329859184 -2.248415904046088 -0.11394213757364434
C 3.202769426489656 0.027935552131750342 -0.11099078345981532
C -2.967352498791275 -2.132009334490343 -0.5525947102850147
H -1.381844108843522 2.3305432563191837 1.0062343667984937
H -0.3313311720501819 3.603638501160153 0.26424722660832084
H -1.492098133418043 2.727683486574555 -0.7362290349938662
H 0.5281117428254464 1.615442059833109 -1.3023287318552297
H -0.3302019415253319 0.17782111307329884 1.288131020770126
H 0.6887741718517968 -1.2885987447309313 -1.0887849259035536
H 1.609491005327834 2.9557062729429013 0.260714195030864
H -1.261230513275825 -0.37011605257407415 -1.5909486682504634
H -2.962617847599032 0.8579205606512909 -1.010197672416866
H -1.1651532441085215 -2.0498759499006547 0.5311859988088937
H 2.188905156912032 -1.0544073110054486 1.4409580247989566
H 2.2497454942771236 -2.403818570849966 -1.0126133842015266
H 3.592723479826845 0.6483509716026554 0.7060383868996263
H 4.126527057688726 -0.5519789614154836 -0.45756708699906457
H 2.897343105262872 0.5645884209640127 -1.0287117739174845
H -3.3739732463172114 -1.5052419252782585 -1.3504529016341449
H -3.744019545958341 -2.346721773404134 0.22420872224878005
H -2.718262077150147 -3.1179435885022477 -1.0045892793795712