30

 C   -0.668396173505    2.329721882906   -1.261759814071
 C   -0.230401467060    1.735328101484    0.074741650931
 C   -0.024817094831    0.205694360160    0.056210499838
 N    1.103353566797   -0.121795047321   -0.812567498366
 O   -1.091416550652    2.134964047715    1.107279247633
 C   -1.270255099678   -0.598213792554   -0.359602547939
 O   -0.986448097750   -1.975565331527   -0.420394332355
 N   -2.439184222379   -0.283445111440    0.430258195839
 C    2.151071881817   -0.928183042891   -0.233638295130
 O    2.821876955888   -0.190809254122    0.745318152823
 C    3.098908546158   -1.407414324083   -1.322470756782
 C   -2.452072705346   -0.753993087334    1.809519648379
 H   -0.670748388325    3.411339052686   -1.188141913071
 H   -1.675705934445    2.018984865968   -1.524293350051
 H    0.003807477915    2.042012805689   -2.062510450273
 H    0.736544153247    2.148737185262    0.328966172141
 H    0.247702360571   -0.066525078435    1.070620753763
 H    0.793251374392   -0.526587142026   -1.671852899327
 H   -1.938246985057    1.734377371638    0.946960215367
 H   -1.520500517775   -0.341069752162   -1.379988685627
 H   -0.623982192358   -2.271700476962    0.403534644376
 H   -3.241364644101   -0.649958781316   -0.043608005376
 H    1.763811294518   -1.790387229015    0.303670668597
 H    3.084109026010    0.636436568242    0.360131677664
 H    2.592571633441   -2.062998788912   -2.024648964752
 H    3.921810280969   -1.952544289046   -0.876169515659
 H    3.499442266171   -0.560578221880   -1.871757328098
 H   -1.680180553382   -0.258305595650    2.382116584919
 H   -3.404614696000   -0.491820919447    2.253082558991
 H   -2.327397810187   -1.831322710964    1.904467676847
