30

 C    0.170138713169    3.075777865007    0.048139119356
 C   -0.366602480068    1.855578894282   -0.681390884732
 C   -0.589709652976    0.655280302994    0.262353114040
 N    0.603703998953    0.257906460251    0.991158417070
 O    0.519129932062    1.592341795999   -1.738504321017
 C   -1.410036326702   -0.464932740506   -0.419527319028
 O   -0.767806747046   -0.857919558703   -1.615653142201
 N   -1.658353902047   -1.647216769520    0.357131751482
 C    1.727315402302   -0.399565414464    0.371986954731
 O    1.464386974568   -1.724922952411   -0.037110615226
 C    2.871403213775   -0.475232820866    1.366460005442
 C   -2.635884106116   -1.531436979222    1.419757494466
 H   -0.501718033310    3.380073587870    0.844721533844
 H    0.270398463594    3.898095319330   -0.650949894160
 H    1.140051090229    2.864927210723    0.477877953704
 H   -1.346330373675    2.107221550190   -1.091463536174
 H   -1.261272686165    1.035761636840    1.027831062769
 H    0.359794764806   -0.207360914942    1.842126508532
 H    0.204324442075    0.838270193694   -2.220172093992
 H   -2.378258786414   -0.037823012951   -0.670320608465
 H   -1.249314044523   -1.599755477694   -1.963295341516
 H   -0.792762849017   -2.028742344184    0.686023560187
 H    2.019292594754    0.187774679098   -0.484183097759
 H    0.949601636686   -1.690808492230   -0.833608495306
 H    3.152885288698    0.516336797711    1.699164172299
 H    3.727457182497   -0.957419298583    0.910434005074
 H    2.578663142522   -1.063931177565    2.231568999658
 H   -2.780147128810   -2.504942821516    1.871629893380
 H   -2.366649218377   -0.831129997955    2.211459103651
 H   -3.587783811926   -1.215643688406    1.006693022761
