30
thr_c13
C 0.15143766772133116 2.508081551992712 0.4020552832445935
C 0.2542291869991429 1.4726695739982367 -0.6930401074060846
C -0.02587451712269217 0.07849678407808548 -0.1469306640036472
N -1.298777840124324 0.12033476151077768 0.471500327625949
O 1.4665331747204973 1.5600084175908073 -1.3199078208290382
C 1.0831247407702163 -0.19765005417197942 0.8679528224710127
O 0.9015834963039208 -1.4201680898988667 1.4981263911904534
N 2.37156671950503 -0.11469873913797873 0.35434171983259105
C -2.126709033768117 -1.010696640379496 0.4679836963747239
O -3.2610141028453343 -0.7807236960213441 1.247597979189988
C -2.5772723549912873 -1.3252212930929825 -0.9564134862643637
C 2.862263173048711 -0.994513792061441 -0.6279078153895272
H 1.1462631809515287 2.8403470443445435 0.8017788199968483
H -0.48557929915705045 3.38155996775933 0.0771381446834543
H -0.4084561286315569 2.1275017520687594 1.311689637179358
H -0.5186163566703521 1.7216506715258548 -1.469075481307182
H 0.057280707118393545 -0.6226931979811459 -1.0035158184014266
H -1.8153994789172874 0.9826172440557889 0.1351905924006914
H 1.6790574959964804 2.4035843498283502 -1.7554781727792093
H 0.9075246779983677 0.578669898643525 1.6688035183593053
H 1.3049595455781764 -2.171348531358248 1.0191236808508608
H 3.0916481692250186 0.250828573278956 0.9842131447120459
H -1.6045572806841417 -1.9439380549157532 0.8209139590228144
H -4.010748914376113 -1.3889764416518338 1.0460032287681864
H -1.7675529165927253 -1.6504765082021784 -1.6039655435105729
H -3.179834295462264 -0.4654219752231853 -1.3706756540172877
H -3.3626083366546378 -2.1309157502902982 -0.8353017628019932
H 2.388519156371633 -0.9411904730260845 -1.635065514802486
H 2.7958434097411082 -2.0619863073872486 -0.2832582995364416
H 3.9811663539483804 -0.8057310458757252 -0.7836600990076618