30
thr_c14
C 0.18729660176052979 -2.5258703501620827 -0.6010183543064963
C -0.3244538623602393 -1.2491260141597806 -1.171746013711561
C -0.4149231079957541 -0.10172783626448767 -0.22622522717387739
N 0.8010601802916811 0.23722915804585776 0.44619959740780557
O -1.6155085056536251 -1.4242699993639616 -1.7174017222554847
C -1.548476395532055 -0.20702416660862022 0.7631178437978798
O -1.3106165404432748 -1.1711626477175303 1.7394528784363243
N -1.7524572136476408 1.0617180066270169 1.4127210582499756
C 1.8675415359408896 0.6715814581757705 -0.4067844240915327
O 1.7413432557720097 2.020581576094642 -0.7533139015893452
C 3.156064376688204 0.5466653091848604 0.3835869211139532
C -2.143089872438724 2.1289732809776214 0.550153446700917
H 1.2513650178174078 -2.7380663081423906 -0.887787110228948
H -0.4058975533794852 -3.358631924804969 -1.078951021092473
H 0.06643109245118127 -2.635941757010041 0.4795205356752237
H 0.29522828699190823 -0.9099877362522949 -2.0497831015955623
H -0.6667619673033772 0.798176622612883 -0.8650496092770225
H 0.597455440936068 1.020768272544721 1.1054606640472202
H -2.0179877958245847 -2.232075175491834 -1.3181823065693141
H -2.460058648009724 -0.46769810765189007 0.15942520920341394
H -2.02917072762687 -1.8306523224636861 1.8203866110287752
H -1.1039946004527523 1.2964450632585962 2.164476252579398
H 1.91915804500134 0.05692354185657321 -1.3021385197678512
H 2.421434043638061 2.2308118123005007 -1.4333332614546868
H 3.0679764031344408 -0.3577767673280471 1.0570922790636799
H 4.023263194342135 0.4232452142317222 -0.26751332333913824
H 3.236451190217867 1.4322577490016364 1.0441225639821738
H -2.406638135954192 1.7632106877744023 -0.4836518812203586
H -3.07943147453657 2.617746661695119 0.9468030202876294
H -1.3526022638248694 2.9036766990396297 0.490360896099333