30
thr_c20
C 0.37405210082710405 2.5739628284276956 -0.35306027307038784
C 0.4239625858620826 1.3316281960991623 0.5144919393052466
C 0.1238480928235947 0.08663688601599154 -0.28295065053854795
N -1.1505089279204657 -0.05475414771931466 -0.7538038642584409
O -0.35553396313502467 1.4450000422474625 1.6491079417118306
C 0.7241617451402409 -1.095598273427549 0.4194949159426871
O 0.717908395871664 -2.1728106489655237 -0.5077417518270166
N 2.1221691635997493 -0.7866637743703094 0.6376932183946458
C -2.324439103801487 -0.13065482155482955 -0.05025355373761824
O -3.4123762283256074 -0.2549223022651519 -0.9542017395853818
C -2.3786656891562785 -1.3547598666427367 0.8238740489252054
C 2.9123991206962603 -0.6048335724018129 -0.5122368986568999
H 1.226526885077779 3.253173937583848 -0.15583146973857764
H 0.4730364705075642 2.2396881360883816 -1.4009898974921802
H -0.5481003589705928 3.1585349009730432 -0.16867537333549293
H 1.4723713032117063 1.238747069942088 0.8525567761095719
H 0.8019189679783423 0.2211354163182079 -1.2036275483796586
H -1.197758118615142 -0.029458511557714784 -1.7922017402806958
H 0.11188863013106835 1.0396261360922008 2.4348884186125375
H 0.2251668381195115 -1.4124013821752164 1.3334528361933085
H 0.674607725341596 -1.774666448940625 -1.3991467019910584
H 2.3937243380339064 -0.41995874478976297 1.5250771292762586
H -2.5603416236652228 0.7240166355794336 0.6341069207103572
H -3.04034561097422 -0.4535625014412877 -1.843953848314486
H -3.4517823848631326 -1.749411381312282 0.8566410131308494
H -2.043287936284808 -1.1740033567777368 1.8651461641334752
H -1.8125198218857863 -2.2158613533991316 0.4300401305664559
H 2.8937996154776564 0.4381360322280216 -0.8680512988835085
H 2.6153519520855415 -1.223475862613433 -1.3838346571479838
H 3.9887658368131333 -0.8424892672411801 -0.34601018577495163