30
thr_c5
C -0.6755931473837978 2.358230704127557 -0.7050424621697965
C 0.4845022015928819 1.444773388591107 -0.3377416173636586
C 0.10796435254617959 0.23815431122488484 0.4384908180327508
N 1.1567624035249255 -0.5409668920689649 0.9855569595563822
O 1.208237756502884 2.2651117672989143 0.5861647939837183
C -0.9867465203636068 -0.633074696465216 -0.08091532056353211
O -1.4201748192410448 -1.361003708864898 1.0913749185906996
N -2.155430985105042 -0.027535969994086782 -0.6020110307443503
C 2.102550716530334 -1.201439290943108 0.2186058315820642
O 1.5364507196535269 -2.0433258485379886 -0.7734951526089595
C 3.078337282929581 -0.3324695447452071 -0.51100833106814
C -3.2967524081721495 -0.9160317432368793 -0.2524969188356024
H -0.1508575359011859 3.325825578115895 -1.0362890620896925
H -1.2852989087401532 2.0345018444339207 -1.533906399704563
H -1.2061133569661688 2.628659040278055 0.2225198154591961
H 1.1385563962282643 1.268075615106453 -1.2032896381383908
H -0.3752794967567467 0.7061687503346727 1.3955322131717474
H 0.6904150873395705 -1.2309378265208575 1.651285098693287
H 0.5733854891945392 2.3916203321502443 1.3422952186431976
H -0.6914384844964702 -1.4493046695810705 -0.7625001119408562
H -2.094201375147899 -0.7672081373449996 1.5601805566737157
H -2.12400263722016 -0.09506781744526058 -1.6748016239820256
H 2.689832264992131 -1.9374565918432405 0.8687145280492842
H 2.235685429719201 -2.163922954296874 -1.4500342070580512
H 2.983629350505257 -0.4043377061128368 -1.6373269845848977
H 4.138013205248137 -0.7467754043395857 -0.3151332791695192
H 3.146987415529614 0.6923064118543958 -0.15315283270207083
H -3.963959562584721 -0.4399232509318781 0.4741549999024908
H -2.9537214917465975 -1.8865194400888479 0.1504150789080998
H -3.8917393422117628 -1.176126250154473 -1.1582618889791751