30
thr_c10
C -0.815151504898558 2.7495340906791927 -0.036680760003346004
C 0.2222697616819733 1.6908511260951198 -0.33961785805304084
C -0.04261935060399032 0.3794855255686554 0.25903338416359506
N 0.895216962140423 -0.6277436734203626 -0.06680492668506044
O 1.435768278421041 2.208146265300923 0.08561127105316851
C -1.4315408127015832 -0.17652694742775835 0.15018371716767454
O -2.462156966925698 0.6853992839025056 0.39687137643553977
N -1.6924423396417354 -0.9577606095621981 -1.0169606739905372
C 2.205426565369425 -0.49222462790349875 0.4227943914350862
O 2.1394885704580378 -0.7322577329656867 1.8245438357394665
C 3.117316854440239 -1.5632914786602985 -0.17738087181536535
C -2.502169720797962 -2.1028995621554554 -0.6696844293413885
H -0.31189984947719857 3.7346651768971877 -0.02984334869814741
H -1.5326463005403985 2.8242852325260017 -0.9074319878499159
H -1.301993823529875 2.6278480019177324 0.931416407439868
H 0.2868885841816554 1.6535990404012866 -1.4581499760543926
H 0.09289590878309373 0.5603967893721244 1.4067733791701282
H 0.8224196620973349 -0.9833169026955313 -1.0520990875324825
H 1.5161875101293711 3.1790542829714767 -0.0986367179146084
H -1.5111856938086303 -0.9347782259808299 1.0223560647696444
H -3.218743231634731 0.31103960880218606 0.9259752037408268
H -2.0998087331696627 -0.43537307805871467 -1.81697764737682
H 2.676169053310951 0.48407011515320425 0.2351673612041684
H 1.556632609132389 -1.5572276149952131 1.87845256943205
H 3.422170281848642 -2.2677762268132575 0.6159118772031399
H 4.086477059174342 -1.0766965751893762 -0.5043407036695969
H 2.627707088475411 -2.10892695890317 -0.9992278327321082
H -2.390330503358526 -2.95318662936088 -1.3335568174814216
H -3.564748788311451 -1.718480310683177 -0.6213209120350865
H -2.225597130244339 -2.3999073848121375 0.37363553057617077