32

 C   -0.041676946989   -0.399100281360    0.041859472033
 N   -1.070852965480    0.369871559299   -0.653955481774
 C   -0.228487074329   -1.906010057785   -0.265651296457
 C    0.835966249236   -2.821523734200    0.351859059860
 C   -1.617820503445   -2.381045946716    0.171661498844
 C    1.389490771082    0.092374912907   -0.323506622623
 O    1.409316622690    1.413353833595   -0.821073044092
 N    2.273330642975   -0.110441018405    0.783359398989
 C   -2.009577965795    1.127085965566    0.143023898692
 C    3.671850336661    0.187837910328    0.537769066128
 O   -3.083572366836    1.497786404579   -0.667871525173
 C   -1.479170553969    2.417935780968    0.754921448228
 H   -0.165550372392   -0.263674803888    1.116152329403
 H   -0.662453206188    0.961918577823   -1.348438629400
 H   -0.174934186367   -2.000054133827   -1.349014472170
 H    1.833341330663   -2.611809445086   -0.009867953737
 H    0.606577738321   -3.856467025857    0.115117015207
 H    0.859024144845   -2.725499858169    1.433210346194
 H   -1.766611687355   -3.420977093649   -0.102359681358
 H   -1.732745417242   -2.310115881017    1.251381391873
 H   -2.403153522724   -1.800164458512   -0.293822089522
 H    1.761809875443   -0.489202987933   -1.156170708209
 H    1.159578378184    2.021020663296   -0.137314544973
 H    1.942334367729    0.359807140430    1.603043299313
 H   -2.350561127088    0.473661630809    0.941645833611
 H    4.037988780768   -0.450041769439   -0.258993136981
 H    3.860536560510    1.220192062504    0.253479025948
 H    4.243099781539   -0.038308910876    1.430289180814
 H   -3.321558687948    0.742954468218   -1.190792551488
 H   -2.266341378766    2.924410148633    1.301190678646
 H   -1.127967278467    3.084490916273   -0.026364706436
 H   -0.666795653029    2.217580927221    1.448590523418
