32

 C   -0.153732625968   -0.695257406459   -0.362152913414
 N    0.901956938148    0.025369117974    0.351784400900
 C   -0.498433733747   -2.008118845401    0.386219711962
 C    0.542177482944   -3.099542517278    0.093070251644
 C   -0.694736348474   -1.857059007349    1.898812862946
 C   -1.412450824815    0.127920776966   -0.702581671624
 O   -1.106867254835    1.211509850767   -1.555072474626
 N   -2.215927067819    0.570988156804    0.398078164295
 C    1.518472535415    1.162475622846   -0.262494220987
 C   -1.732807688071    1.683304609310    1.201425078791
 O    1.845590305325    0.867096068760   -1.615663496996
 C    2.767037711969    1.551086266473    0.513912254692
 H    0.215494914533   -1.000528172554   -1.341783389689
 H    1.618053203355   -0.632456219251    0.587793542383
 H   -1.440508833381   -2.354971983672   -0.030912603116
 H    0.245785565003   -4.038611592056    0.550039687204
 H    0.653947091713   -3.270406363040   -0.973330416009
 H    1.522285961130   -2.849077561581    0.492034214925
 H   -1.449849726922   -1.118976329792    2.124454560226
 H   -1.009552562560   -2.807652384197    2.321180283181
 H    0.225701944281   -1.567412557363    2.394208325833
 H   -2.044698480820   -0.561731350648   -1.255585194927
 H   -0.339352467910    1.009542157332   -2.075862338383
 H   -3.123213217835    0.797789263124    0.042510038291
 H    0.817838694215    1.983619671176   -0.256769932114
 H   -2.479780898564    1.903149253957    1.956407862186
 H   -1.552992946467    2.587142745507    0.624877643121
 H   -0.820065209639    1.403673070994    1.705620392800
 H    2.255876043623    1.622858779213   -2.014963100893
 H    2.518154425767    1.770115314659    1.545490702714
 H    3.229687624994    2.433499229779    0.081312524816
 H    3.494822544525    0.745630003221    0.489500183646
