32

 C    0.045948267808    0.290422497301    0.564633485859
 N    1.436869866765    0.287329881713    0.110550592482
 C   -0.345476533880    1.773186683961    0.803365681115
 C   -0.556381545441    2.594779391699   -0.472739965648
 C   -1.496891995028    1.973785583910    1.798974188984
 C   -0.824784525463   -0.561036359533   -0.376176377618
 O   -0.639343630212   -0.137969785630   -1.705989114482
 N   -2.201084642065   -0.571027059920    0.037125467220
 C    2.068812726191   -0.951657005744   -0.234351687200
 C   -3.005915855984   -1.637186172628   -0.526456936812
 O    1.917820136551   -1.975158474708    0.729716056829
 C    3.540200094056   -0.708218775865   -0.535959388268
 H   -0.047188049485   -0.217590870257    1.523410768145
 H    1.998917549589    0.792178440750    0.767356495896
 H    0.529481844624    2.195336705821    1.296862601399
 H   -0.621431471921    3.650727453225   -0.223685806070
 H    0.261094604318    2.452209373436   -1.166268167701
 H   -1.471674291918    2.320822253744   -0.985593662215
 H   -1.536044407178    3.016019371505    2.102904840426
 H   -1.359137630331    1.373248718503    2.692632351525
 H   -2.465609775754    1.722426659801    1.386962870617
 H   -0.475675763005   -1.582099897065   -0.275119873454
 H   -1.002348470297   -0.784098322310   -2.295318134502
 H   -2.620673235605    0.312590772449   -0.167424245316
 H    1.589154181152   -1.346939446299   -1.115016870316
 H   -3.072837472025   -1.626921840293   -1.616751965725
 H   -4.014291867197   -1.567545690363   -0.136655431584
 H   -2.601393523420   -2.596181450921   -0.222869092904
 H    2.351597430461   -1.720214659184    1.533777693880
 H    3.650830930225    0.014920357781   -1.334691248667
 H    4.018931118921   -1.636147993824   -0.825343460280
 H    4.056562626417   -0.324518841555    0.342816161362
