32

 C   -0.585231376837   -0.429772355052   -0.196026689332
 N    0.246029312320    0.276774548510   -1.171196807375
 C   -0.081976802002   -1.823430232333    0.273279131695
 C   -1.164643323150   -2.564769741718    1.070938916222
 C    0.361201129062   -2.684383949745   -0.914824253655
 C   -0.957304657249    0.499194298240    0.969376158209
 O    0.185347666890    0.668557881236    1.778380734295
 N   -1.463709272390    1.785381584440    0.566705432033
 C    1.518781220489    0.873872498654   -0.819721118762
 C   -2.905272742802    1.875840995583    0.427827822756
 O    2.375776671118    0.060624038882   -0.067613413691
 C    2.255100386332    1.250767836766   -2.093077283337
 H   -1.521327732838   -0.613129814695   -0.721690120003
 H    0.344350318801   -0.286395118710   -1.990220695671
 H    0.774316986493   -1.695594421313    0.921098288195
 H   -2.086479746236   -2.656355518193    0.500186434653
 H   -0.831394598804   -3.568781014270    1.313119640008
 H   -1.397287071325   -2.073308912450    2.008683857001
 H    1.233184168769   -2.269720980382   -1.404433787039
 H   -0.434787276323   -2.787688974270   -1.650698151466
 H    0.624447181039   -3.682758549216   -0.580298865409
 H   -1.730898099719    0.024698586962    1.560377164150
 H    0.054962004207    1.463535029214    2.279848337182
 H   -1.020142737854    2.065112758615   -0.285580362699
 H    1.317087297692    1.771864231719   -0.249758189354
 H   -3.379396507730    1.692758595943    1.385688155993
 H   -3.165791233570    2.880892913072    0.118799570131
 H   -3.329484046066    1.180972314825   -0.297668462955
 H    2.055561040304    0.064215748297    0.826027746276
 H    3.176137778407    1.764246447696   -1.846640252355
 H    1.644513380162    1.894925390469   -2.715540529181
 H    2.511266627602    0.357949529026   -2.656142737576
