32
val_c11
C -0.07018001182248983 -0.1104694003983136 0.09895592733317152
N 0.8925239344333477 -0.45885358042523144 1.122668101806028
C -0.6883636859316425 -1.4127961923559005 -0.3425988742942311
C -1.705700761444989 -1.3296251463365232 -1.4174154183176808
C 0.38407505620926763 -2.3894591096629854 -0.8022229403499648
C -1.1613686094880886 0.7580998173767938 0.7090873866694206
O -1.8609410114787857 0.10462037750605391 1.7166488040764472
N -2.05834661965964 1.368982550740457 -0.20751882350845247
C 2.05837572172154 0.31019831882538257 1.2043442222860514
C -1.4679675599875777 2.3277789443854604 -1.1062144113144312
O 1.8615858084706807 1.6528461544477793 1.506120453694413
C 2.9311398248908516 0.24136611827983662 -0.018577182445802986
H 0.39021425461043163 0.39964184597537694 -0.7503071955790247
H 0.9400642753091552 -1.4656343678389492 1.2700188222880844
H -1.1228086687326522 -1.872288389398261 0.6034843152267483
H -2.440837180643952 -0.5429661817006013 -1.373502953606699
H -2.2668778134013308 -2.319231531019445 -1.36754254773864
H -1.184688145026228 -1.3991763602986718 -2.403664753523182
H 0.3162873695292686 -2.5050451405690963 -1.9188790659807644
H 0.15477624266187387 -3.417388465575534 -0.3888141673383925
H 1.39960054974167 -2.0930637185953582 -0.5801125625484437
H -0.6360578793767141 1.617659768959198 1.2395226776554549
H -2.8501978396383087 0.12269336014981214 1.5417240770522807
H -2.8696826305834255 1.8264681887547018 0.2593450383263321
H 2.7005864031379634 -0.10090203702017257 2.042303731968569
H -0.5820290858545992 1.9059559746093122 -1.6112120385894104
H -1.1742467123787597 3.2498821408858065 -0.5464940942152314
H -2.2106057922780042 2.687675562291506 -1.8610474129088233
H 2.718259616584862 2.117442327522661 1.3170039256026145
H 3.526154785436036 1.1775455047966228 -0.09962147598812905
H 3.6926209385637336 -0.579016146230424 0.07914933182051938
H 2.3846352264266457 0.12705881191858298 -0.9674375497590915