32
val_c21
C -0.18821586968123585 -0.3212317143947587 -0.39236389735349053
N 0.7155279140688725 0.2625532800794431 0.48832927728522757
C -0.6612625235435834 -1.7308787314842984 -0.05241917511034512
C 0.41246403112828056 -2.774695543109143 -0.06187764115415936
C -1.226200446015104 -1.7557331781948822 1.3583268145323237
C -1.3491111911482658 0.4288816093850883 -0.9207106319162197
O -0.7916696482901864 1.5592605106004997 -1.691286645532004
N -2.2790916011234033 1.0331208889555605 -0.0527493095733385
C 1.7399630624394997 1.0907444667056447 -0.06165468703792439
C -1.9978129799677078 2.277203248250138 0.5326851185053167
O 1.8190902332899141 0.8835128495169748 -1.4602807662855293
C 3.1123139773907407 0.832750283785363 0.47956840738782314
H 0.4449598066987543 -0.5349726685020862 -1.3505861904359888
H 1.182909867899078 -0.46009652967173775 1.1093203022358475
H -1.433004784027298 -1.9962708551164192 -0.7853369872262111
H -0.10709051479733907 -3.7411820105186995 0.2319786007825839
H 0.8525315734916635 -2.9200405210335085 -1.0824056839570695
H 1.1911905034632446 -2.603631285279821 0.6683195882027401
H -1.8204542331166587 -0.8839273099950389 1.5971992855711143
H -1.7946565132991126 -2.691638081697675 1.4643316000216737
H -0.34769756904992494 -1.828701699599323 2.0270114972211357
H -1.8786323828648268 -0.15208241202807518 -1.6786535295390974
H -0.7187575209791688 1.3092235324810357 -2.596582465824558
H -3.1638461999699254 0.5827316463778172 0.07980471995722595
H 1.4456823174377595 2.1422172285792596 0.059662231928642284
H -2.960899183351309 2.6725423020803003 0.9845863500860755
H -1.810341579231689 3.056461255706977 -0.29985929409764006
H -1.2244247375408734 2.347004686707898 1.2453528078691165
H 2.4884099287643875 1.5327026134890087 -1.7789632317782729
H 3.0100499464078103 0.5922810426739213 1.574928120430003
H 3.734348891119323 1.761546320446388 0.42546371122939763
H 3.603727424398282 0.03034477480414904 -0.06113829642437844