32

 C    0.053246366495    0.507844370496   -0.204434604992
 N   -0.699070242004   -0.424717776094    0.629414814459
 C   -0.005611461381    1.957209410815    0.336408469972
 C   -1.437907206195    2.500332315381    0.357768900746
 C    0.633834406974    2.105314872003    1.720586997219
 C    1.504778348026    0.010663332335   -0.352637105233
 O    2.290670378138    0.935993293896   -1.062539999295
 N    1.530369713621   -1.315164424026   -0.901703162001
 C   -2.011826208200   -0.839468701376    0.177264079442
 C    2.847070940406   -1.920513968497   -0.995947547269
 O   -2.712920411812   -1.360204159838    1.268179329523
 C   -2.022191070735   -1.922140827738   -0.892617923024
 H   -0.365047948361    0.530830798281   -1.216423933317
 H   -0.152285513542   -1.245611712027    0.799186138002
 H    0.560259375786    2.570811933840   -0.357159161737
 H   -1.435351388958    3.551723396824    0.628392367703
 H   -1.917628883223    2.415632642669   -0.613854437994
 H   -2.051158765762    1.978112393745    1.084414474322
 H    0.175645399027    1.427920353335    2.432701795495
 H    0.501849698746    3.118667094063    2.087865167925
 H    1.700247191216    1.911037608335    1.697531143707
 H    1.968870632596   -0.043134031352    0.621765725483
 H    1.913623030671    1.087685775117   -1.919803557081
 H    1.064626810881   -1.345069446624   -1.788301524365
 H   -2.519001997747    0.039444289387   -0.204977525964
 H    3.277399013711   -1.995441230311   -0.003580734470
 H    2.746881941705   -2.925153616480   -1.389291346245
 H    3.541030260754   -1.365793259293   -1.622134148161
 H   -2.549297359821   -0.791851021394    2.009575794404
 H   -3.043254561753   -2.202511113499   -1.125064989928
 H   -1.496073502166   -2.802062212769   -0.539265129185
 H   -1.547879888656   -1.575520861196   -1.805007578566
