32

 C   -0.035808498657    0.295794098478    0.589700563838
 N    0.713570025243   -0.203737311884   -0.569238954116
 C   -0.196376594117    1.837784581829    0.635612958096
 C    1.057610457762    2.515694584252    1.202592442047
 C   -0.590861031892    2.512259440373   -0.686098915468
 C   -1.372176728236   -0.458128786787    0.698233642231
 O   -1.122757788430   -1.829749345680    0.916847750634
 N   -2.228749638314   -0.207103795368   -0.419545243218
 C    1.866051301409   -1.055429827914   -0.334505391983
 C   -3.521797703149   -0.863948335861   -0.374577163090
 O    2.206767431335   -1.674013186207   -1.541187833278
 C    3.126968048337   -0.357198561382    0.149376533391
 H    0.497670623335    0.017000331837    1.493724904450
 H    0.967845598078    0.527427890078   -1.201158158605
 H   -1.004971019791    2.024233337866    1.338252296855
 H    0.893131159792    3.582825094598    1.315446174630
 H    1.912708821585    2.387905379174    0.546057447326
 H    1.322900705385    2.118517760257    2.177752611318
 H   -0.785529075107    3.565418137137   -0.507473064065
 H    0.209099151840    2.467672619279   -1.421538573322
 H   -1.479633124310    2.072471424989   -1.112862395497
 H   -1.883179659463   -0.133713053326    1.595792240446
 H   -0.718635282786   -2.183940013057    0.135577189795
 H   -1.744118207446   -0.421582838050   -1.269228545599
 H    1.567857830912   -1.796425228026    0.400473450170
 H   -3.466026729575   -1.949090765541   -0.332502076951
 H   -4.065963669854   -0.524778212305    0.500029307961
 H   -4.094118500653   -0.578891864448   -1.249818978724
 H    1.412833773193   -2.002480345516   -1.941519076202
 H    3.434022854221    0.397889338331   -0.567257810754
 H    3.930385423596   -1.078284634803    0.246428285493
 H    2.969907706266    0.113976888481    1.112246159779
