32
val_c12
C -0.17051421511456846 -0.0662829413626451 0.076798944610693
N -1.1825287419701311 0.658434625523791 -0.5814722173199688
C -0.282021121945359 -1.5692214943730707 -0.2270970129836117
C 0.7274077492646174 -2.41249078010063 0.4460618111352052
C -1.6547137873790687 -2.120042833108882 -0.0638540548242538
C 1.1987132019135633 0.3588576932291448 -0.3756143137443121
O 1.4526860111929683 1.7129843627380987 -0.15636668450041197
N 2.272155785388145 -0.3386622496274099 0.3433574430949136
C -2.1267993289542986 1.3947156861025207 0.11767357808477673
C 3.500757453862375 0.30058249454417424 -0.09697520454277936
O -3.189654628468919 1.7777077978982743 -0.6865451217639882
C -1.6128824726297628 2.6649500371025243 0.8101638990505006
H -0.31346905157160804 0.019908000953068772 1.1648374605260348
H -1.1853933329146338 0.655983854511324 -1.593738997629182
H -0.04931098501671633 -1.6632469919009416 -1.3585369384915067
H 1.6757734099802166 -2.5397937140939844 -0.1249656255236866
H 0.30115894794293885 -3.4800110675679634 0.44262853091312865
H 0.8754186272591572 -2.205662372272679 1.5273904278389878
H -1.6506542704198834 -3.167378216978723 0.3714467876833867
H -2.342010736194526 -1.5600902316454437 0.5696821113945462
H -2.163434198007682 -2.281955395315859 -1.0661637643310424
H 1.3189044092731304 0.14662160198063995 -1.4422968783614774
H 1.6589415533492626 1.8174541406977425 0.8001279642848385
H 2.1822081514722624 -0.22703454787623073 1.3756711142841254
H -2.537665755711336 0.7311696708923071 0.9461129855059821
H 3.547321854273889 0.16809671497145376 -1.2129627720241274
H 3.4989142878764636 1.393298874198611 0.04958461791166439
H 4.389472870879151 -0.12378897168910834 0.41433885767648115
H -3.4187832643211444 0.9865711086001046 -1.231527789097424
H -2.382495164084217 2.918434776634142 1.5804156118055166
H -1.6577179109115665 3.512641825872941 0.08583583063468372
H -0.6797853483131021 2.5372485414624895 1.3373133440398455