32
val_c17
C 0.0034667493721211064 0.17957249103581227 0.3917885087339139
N 1.290671035192154 0.6968530227613134 0.4334651635075461
C -0.8203499087145378 1.3388157273513397 -0.2051828467833857
C -2.263271169772282 1.0807783275775658 -0.36057348058322725
C -0.5984661919741933 2.622999792139107 0.573477536599013
C -0.25464646130792745 -0.9768444508727934 -0.508040675833893
O -0.08981089089634761 -0.738387411332596 -1.8608982362170978
N -1.5704928407743681 -1.4690802044155231 -0.27197796744817365
C 2.4834513380104495 0.09980627157215712 0.2190198177313303
C -1.8176559271996244 -2.0532582934634944 1.000274675845244
O 2.778830765957014 -0.8641400089825547 1.2179900263861234
C 2.853265803785012 -0.5180673156809387 -1.080222151796577
H -0.4006585958560851 -0.033955740744538235 1.3723806548297748
H 1.3295547268775216 1.4858977044974395 1.098818650385656
H -0.38424630018225037 1.576477394245426 -1.2313443864935605
H -2.818725862167145 2.06529661712051 -0.46276165460543583
H -2.5081918036035082 0.5452594448787645 -1.3097823080550939
H -2.7099876520069324 0.6092767060074428 0.5323375379564987
H 0.37702220720660024 3.097806407487604 0.24691306784120726
H -1.4113811032301915 3.3184965822556314 0.31380582060383805
H -0.5761615823444218 2.4320203434728107 1.673532594107431
H 0.4168823680617773 -1.8659113691970912 -0.2062745030566085
H 0.06768180455279448 -1.577839733446762 -2.3409246853248034
H -2.04096840295529 -1.9719950209549424 -1.029692649511358
H 3.2922584752924067 0.8786502369356058 0.4191688701620676
H -0.9111900680862874 -2.6078252566860023 1.3378252118650686
H -2.0915574407728292 -1.2809146937084435 1.7466557345169764
H -2.670163637569648 -2.7659569139638918 0.9769066422736586
H 1.944345815884163 -1.2250387936985578 1.6010593340888533
H 2.608795031111291 -1.6094824666905747 -1.149854636935967
H 3.9671389398282417 -0.5122655083389759 -1.1626005844234304
H 2.5245607782826793 0.04295611283928765 -1.975289080365527