32
val_c5
C 0.17171657973437368 0.2332654091609609 0.34955664534016634
N 1.201735832419964 0.2716805909279499 -0.6353241957008434
C -0.4729250548090673 1.5612295356422234 0.5265009631080048
C 0.6367308815817759 2.5258664294512627 0.9710715702349638
C -1.1146260438012234 2.1574475230586905 -0.6639720472276863
C -0.7901199488669765 -0.9076948334590581 0.12588474746823483
O -1.4249703069141177 -0.8370001617206466 -1.0943521949970454
N -1.7737907743424755 -0.9979425102272829 1.1858713470416915
C 1.9112933503747762 -0.9442905615883872 -0.8527147821404522
C -2.592430691493105 -2.165650449227835 0.9308420712011336
O 2.858612965632997 -0.6912447616496106 -1.8677839973936203
C 2.6724591980814063 -1.449334993519986 0.33098068442920403
H 0.6647162264203621 0.0013156608100403531 1.3430717319402365
H 0.8245787983845114 0.5953831180490515 -1.5544238525123157
H -1.176893557037433 1.523800079807853 1.389313168847906
H 1.0106361342363714 3.082435916922581 0.08474116722468389
H 1.4729895932686852 1.9773944273110418 1.409077553497329
H 0.217689898222242 3.2711933141277982 1.6698150923031048
H -1.2779809940872098 1.5053537318844947 -1.5179933253045306
H -2.1247826809304238 2.5663770796154695 -0.36925421448105317
H -0.5696397373684876 3.0668014811796067 -1.0441496296544903
H -0.20444955200360782 -1.8508285564460014 0.14781774891867328
H -2.3639199991104456 -0.576897742290719 -1.0754564908807107
H -2.411119695879469 -0.17251382743298857 1.198977553385101
H 1.2485111211994688 -1.7467508170639856 -1.2922169820395444
H -3.0045103417455836 -2.2248518898777077 -0.08365222691773254
H -2.0086344331288757 -3.084697381976625 1.1014092489182123
H -3.4575644403024324 -2.1047489463206346 1.641014866880187
H 3.1458757634153116 0.2594016210424282 -1.8249775794126772
H 3.5764991586500057 -0.8079791598033499 0.4672394391111905
H 2.0919606207670065 -1.5695297091592484 1.2438477518070374
H 3.062352129431764 -2.4669896172274592 0.05618722977855379