32
val_c19
C 0.03092463492556069 -0.1115048001584284 -0.47199156959155397
N 1.005829154870025 0.5927488922725624 0.29961891880894354
C 0.007783726157618006 -1.553010797164996 -0.06881431336760892
C -0.33340482915851233 -1.7654908294876803 1.3695730473597385
C -0.8867628883455557 -2.4066182039722905 -0.930560146217895
C -1.325336272971226 0.50545653746726 -0.0967392282927676
O -2.365716955631495 -0.08080212416337237 -0.7767842199571172
N -1.3453608540125104 1.9308332740580685 -0.37756055238346103
C 2.3596127164579404 0.17687339241435757 0.141455347681528
C -2.635758989572846 2.4151851293221855 0.08180913088402017
O 2.8039762759128712 0.14256494937098826 -1.1711636824410505
C 3.212125828308485 1.1834023435116652 0.931515379279155
H 0.19691060305768127 -0.056375644019086193 -1.558937011179076
H 0.8859659608018323 1.619385436815475 0.30141834454720184
H 1.0425740350772157 -1.9532626613686799 -0.22419577877336688
H -1.4382498716290235 -1.8571044062828455 1.4517740760580546
H 0.09941295304083855 -0.9772646322748411 2.0080951748731906
H 0.0716337350453552 -2.7681179312643542 1.662080729528173
H -0.7287420369696074 -2.100993764073951 -1.986260684554416
H -1.9427175506044512 -2.3666228416278816 -0.6353305820663444
H -0.5178463643821818 -3.4666068575665165 -0.7974796889232754
H -1.481304413499964 0.35905832299806256 0.9926382611914345
H -2.3759111660771146 0.22496672081830585 -1.716280936377848
H -1.3489802099830182 2.0892901973244262 -1.4230707009311687
H 2.5189111902873407 -0.8439819063889921 0.5981840666471498
H -2.8768031621343177 1.8565546171639133 1.0088561447156035
H -2.550113732682845 3.4994147459825906 0.25287588729198973
H -3.4070223522091174 2.1933435645665296 -0.671646761537146
H 3.0440158458495747 -0.7966647717053058 -1.4355299384465097
H 4.209960380159605 1.2616757016050808 0.4230059316852569
H 3.3524651661662817 0.8703410561142371 1.9749661274062564
H 2.7179294437454105 2.1833272897134735 0.8444792270829304