32

 C    0.433561400179    0.305148287771   -0.100892590667
 N   -0.414201078627    0.166699215887   -1.292772612232
 C    0.030355874142    1.535835970308    0.762320416336
 C    1.125961123605    1.988124195972    1.740116122831
 C   -0.326056056278    2.736825575689   -0.125410533083
 C    0.542334712144   -1.042501987712    0.661132043309
 O    0.793059365506   -2.093522442323   -0.247901136288
 N    1.455024550797   -1.049088401107    1.773887415949
 C   -1.663310127316   -0.583482297960   -1.293010246956
 C    2.874955084389   -1.001448959337    1.475434041504
 O   -2.112067518258   -0.592175723289   -2.619443718707
 C   -2.739164146349   -0.013027934468   -0.378931894750
 H    1.417922257714    0.535920993885   -0.504562681226
 H    0.129293823633   -0.235078474160   -2.029049488165
 H   -0.844707367667    1.277740081185    1.352613075782
 H    0.795064859767    2.877222349733    2.268262610772
 H    1.368097702209    1.232244137247    2.469534209926
 H    2.034396635757    2.255719191757    1.203872525063
 H    0.518248040286    3.011670505438   -0.752931826958
 H   -1.162825404406    2.543266630801   -0.777829239418
 H   -0.566877677010    3.594692909689    0.495440966909
 H   -0.427525878126   -1.278350217038    1.074894948431
 H    1.587218478136   -1.922155742600   -0.735479955173
 H    1.266937890130   -1.865403888839    2.321210782378
 H   -1.512437452768   -1.628297663791   -1.054419945760
 H    3.128984867274   -0.074693096066    0.977365731453
 H    3.426074643928   -1.025306352600    2.407598971036
 H    3.227568024993   -1.830198692820    0.861539876584
 H   -2.166417409065    0.309026453813   -2.913252626998
 H   -2.477726095939   -0.086983554747    0.669520561373
 H   -2.934734716449    1.028717337827   -0.609339820038
 H   -3.652197865129   -0.575482377034   -0.536650980741
