32
val_c15
C -0.18144993677731472 -0.1969520387265309 -0.29711087989584045
N 0.9127977481216167 0.5105794814204455 -0.7950808362666405
C 0.0787374413275725 -1.6239160271678217 0.15082162362651028
C -1.1728733055651845 -2.284418381998741 0.6659284512707568
C 0.5326156856222312 -2.4832189233534803 -1.0350421397773724
C -1.1306236010462776 0.549587577634269 0.609385690446433
O -0.535708249207459 1.0565251559499675 1.7540106908339101
N -1.7733276585046023 1.6597759542139991 -0.0660140903773943
C 2.0408848398662434 0.7886522816090612 9.690600506224046e-05
C -2.9917564313954794 2.024042597608948 0.6243149269008924
O 2.7256339588882046 -0.2854151566650816 0.49299753615022956
C 3.001623678584791 1.539242047166541 -0.9355266675482624
H -0.8290810073614789 -0.3639461527997828 -1.232705397663523
H 1.2210060438385808 0.11953167535857237 -1.712103021014863
H 0.8652117437710084 -1.6864239580033764 0.9033022725689466
H -1.9940439871596896 -2.2058966687828887 -0.10343330475750287
H -0.9542563933565461 -3.3735584336568762 0.7092116067437442
H -1.4893816931175163 -1.9649592680782157 1.6498743608406397
H 1.621922621829734 -2.637756079372901 -1.065838821339402
H 0.26456764096427926 -1.914867786406947 -1.975501344570737
H -0.02333392362244967 -3.43754180114992 -1.1037814178418126
H -1.9627060819126187 -0.10454711077281162 0.9598557006981161
H -0.5833112954760712 2.045232073353313 1.7670760581266207
H -1.99950940433383 1.364260219734859 -1.0466262745242325
H 1.8657698203309159 1.5056206739013283 0.8361092567251596
H -2.8192129080476924 2.304207963875208 1.6751954127890873
H -3.4490419166784823 2.8421340361274274 0.07322107343644393
H -3.7056584330011244 1.1502753311939178 0.5658068905460557
H 3.009958237242965 -0.10559394890059495 1.4161295800258393
H 3.747456278319364 2.1051861792683324 -0.37542598850947934
H 2.3469957436064655 2.296439096147957 -1.4539501059537787
H 3.360094744249736 0.8077193912717654 -1.6551977476935877