35
ile_c26
C 1.265277027906029 0.5015817064303387 -0.6162152373857291
C -0.09421605770133677 -0.020729940795768984 -0.155909641133748
C -0.8512798480209716 0.8645480213480908 0.710495205248976
C -1.6119794058777204 1.9885488157234634 0.038345904018379506
C -0.823462539819322 2.96299393513563 -0.7437468112181349
O 1.557061766634349 -0.2831043456475793 -1.7508319205370426
N 2.318314257346078 0.3201071271147666 0.30330610779709544
N 0.07949721034232067 -1.3925250165130376 0.11111599063818302
C -0.23970792563351306 1.3396958256131923 1.9993896034053444
C -0.8320796448893724 -2.326713178016776 -0.4095816994238334
O -0.2794761103057768 -3.606729808038798 -0.40844612662691127
C -2.157237494928916 -2.3394813444678637 0.30670483377454755
C 3.490283910171714 -0.24366549455663528 -0.33335082119992687
H 1.2270399848825593 1.5325759001428896 -1.0022185925306273
H -0.6791190043945451 -0.0036379260728598706 -1.1620609606137227
H -1.7332252897699225 0.20577080723264976 1.1124270859217342
H -2.3821773301693994 1.5115290040815164 -0.6090752145901535
H -2.211495214732334 2.5573551944483883 0.8095337915784547
H -0.7017546687560533 2.562394960553834 -1.7790102583814815
H 0.11949994168131053 3.319687006995897 -0.3596945426957335
H -1.468569143276529 3.892010384360282 -0.8321100443664298
H 1.4883571393403758 -1.242837639396114 -1.4375675169939177
H 2.0513205438643203 -0.31888321345307974 1.0596666628780342
H 0.5540062982314333 -1.6485106432655596 0.966809140287555
H -0.10415489347802111 0.4868539301694732 2.679443309080846
H 0.6105699132541464 1.9889448223209398 1.9104465122664842
H -1.0917868095096932 1.9227129636310996 2.501002485696512
H -1.0620901551865878 -2.0707842663374882 -1.5168117605724984
H -0.5386892735085774 -4.066477773958272 -1.2436202759778623
H -2.7339896101445085 -3.2504206470955497 -0.0715999977240499
H -1.9362046406168982 -2.511237152044824 1.403743718131423
H -2.7888415534368485 -1.480069519073423 0.10231385238743992
H 4.401859389427295 0.38641577934526666 -0.11945618640562627
H 3.742075196311624 -1.2652252711223007 -0.023553425913402017
H 3.4163740347632903 -0.2726930047920059 -1.4398831688201208