35

 C   -0.122383566464    1.061453579786    0.765711716884
 C   -0.219872554739    0.112951135144   -0.448483603304
 C   -0.811446602480   -1.302059980424   -0.158221639721
 C   -2.349698734170   -1.326059558089   -0.237156875262
 C   -2.952451311367   -2.730901490399   -0.320781238303
 O    0.415638916510    2.300228890819    0.400226958700
 N   -1.395782207288    1.255235842811    1.404518713125
 N    1.068768255144    0.053033987722   -1.150875786072
 C   -0.306210064182   -1.955122939181    1.136128229502
 C    2.334052854716   -0.126975471900   -0.499519221425
 O    2.980884621425    1.120721607477   -0.318003043054
 C    3.230765899713   -1.065195487046   -1.294841763578
 C   -2.342069410160    2.125491158442    0.719137144137
 H    0.515982268737    0.605283427402    1.515389683351
 H   -0.883129211046    0.593015212711   -1.158980341947
 H   -0.459721482891   -1.920474167371   -0.984608871081
 H   -2.765678153596   -0.800752630821    0.613383423096
 H   -2.657890740340   -0.776967012497   -1.124531897511
 H   -4.024225159205   -2.673274186104   -0.485158853466
 H   -2.797861140713   -3.299947523311    0.589441365450
 H   -2.524603981728   -3.297997868753   -1.143818874502
 H    1.325479402186    2.179718460568    0.154140190643
 H   -1.222657149062    1.635809348867    2.313670803223
 H    0.988357381517   -0.495834343270   -1.979222776981
 H    0.776402144391   -1.952636276538    1.200606451442
 H   -0.617146891440   -2.992338222416    1.188364885740
 H   -0.699080381434   -1.447771920077    2.009830044244
 H    2.232412889979   -0.503060052440    0.507353724291
 H    3.051860701892    1.535006875501   -1.170121960206
 H    2.810022091679   -2.064722464766   -1.333124956917
 H    4.211913109961   -1.116286439483   -0.839783007064
 H    3.347483940231   -0.704641840299   -2.314306699569
 H   -2.649915982378    1.686064322350   -0.220393386946
 H   -3.227716653326    2.216033659337    1.337884889225
 H   -1.949934579136    3.117187169543    0.519661853300
