35
ile_c21
C 0.5376414220215827 -1.0974870475009502 0.5735534189184932
C 0.26611067067405375 -0.28061708379187894 -0.658723965904004
C 0.8763868172963017 1.0683619340364756 -0.46768571832889533
C 0.5055296993618515 1.7387304165971293 0.8251706049138275
C 1.1930648361783078 3.104582761135533 0.8828209159808436
O 1.8640127305072696 -0.9213180608297641 1.0171161913391975
N 0.44594165713562756 -2.544818180194149 0.27735619786474847
N -1.0078300883106097 -0.419685726715841 -1.0824334465329775
C 0.6693125760507098 1.965218512574821 -1.6623084814811186
C -2.226584182636385 -0.09940544261711486 -0.6005301829135306
O -3.2147794588061815 -0.441735978355477 -1.5760753034671044
C -2.58865036670805 -0.8485543666423978 0.6509920986967307
C 1.4751961665921431 -2.901235570481044 -0.6745960871389982
H -0.13037697231922973 -0.9093653684268065 1.4224238350433105
H 0.9444467988721289 -0.7677962820272098 -1.4481869484388623
H 1.9761799308533017 0.896601469068687 -0.4114947020644009
H 0.9634262868939534 1.18268447319626 1.688188110894923
H -0.566234249283765 1.7879912817038404 1.0306649852284675
H 0.6303068161352894 3.8904370389642855 0.35574872792658296
H 2.2205560031594884 2.9465099474537015 0.5121302220400061
H 1.325952878134896 3.3927179517396833 1.9602526370449311
H 1.891078809601138 -1.33539538477938 1.9110984220385143
H 0.6563189724784563 -3.077262383042077 1.14898829956733
H -1.070757429440908 -1.3028751615374652 -1.7028012890341069
H -0.21862158219331673 2.612541087785929 -1.5759580454427042
H 1.5799307179549775 2.600678567413049 -1.8276434784099858
H 0.546586289608213 1.309825138455835 -2.560177617374629
H -2.46506492530784 0.9681476570220388 -0.3891356543567389
H -4.112921742808099 -0.2821852631035656 -1.2246823327526968
H -3.712715336353066 -1.067166351592789 0.6567197978027952
H -2.3459288694416407 -0.2995103134584094 1.583942048579524
H -2.1607015994760324 -1.861475193172094 0.7388968569516678
H 2.3764271558248637 -2.2642229290003613 -0.5196360971502108
H 1.781701521360138 -3.965753825780755 -0.49207281951554477
H 1.0950580463902617 -2.777162324097836 -1.699256412995692