35

 C   -0.087871181457    1.257331091564   -0.727159621129
 C   -0.034671551657    0.212275341484    0.412362590825
 C    1.373392034780   -0.334555060207    0.755859991070
 C    2.004980120858   -1.191733935686   -0.355063075955
 C    3.456412790378   -1.594490872466   -0.079598460397
 O    0.027385662445    0.622433711361   -1.962178144109
 N    0.884610411576    2.322503614713   -0.666049869676
 N   -0.942764361206   -0.896793877195    0.155618168844
 C    1.344654705786   -1.078190161005    2.102285367033
 C   -2.329083928442   -0.647340664456   -0.178394059810
 O   -2.898802724854   -1.870021537471   -0.543839604207
 C   -3.187059468210   -0.093181667436    0.950351102963
 C    0.715429981798    3.314686959945    0.375926662183
 H   -1.055355016395    1.750419838110   -0.658649771380
 H   -0.347656272084    0.777115814350    1.295638170067
 H    2.008798179267    0.535167646936    0.910885313613
 H    1.962179229547   -0.649562321062   -1.290024418768
 H    1.401480624962   -2.080708278173   -0.502785105743
 H    3.876518658115   -2.103492468738   -0.941736639273
 H    3.546877373590   -2.267282175536    0.766568699296
 H    4.079775156474   -0.726050344669    0.121682379453
 H    0.109891717871    1.304062598026   -2.617216852642
 H    1.815201414809    1.956561027139   -0.675034655740
 H   -0.925203317505   -1.536751527029    0.925027910090
 H    0.884401837009   -2.058494018743    2.016411461619
 H    0.797602306506   -0.514558223188    2.852970950459
 H    2.347149766094   -1.231243319250    2.484078188281
 H   -2.351207195281    0.031316825609   -1.021458040607
 H   -2.326681153521   -2.264664682156   -1.190081361187
 H   -4.213019900488    0.021710423664    0.619322138452
 H   -3.177399873748   -0.775708909471    1.794563128304
 H   -2.824117498543    0.874344447033    1.282252574633
 H   -0.274855949057    3.750524029914    0.300393809171
 H    0.838519572343    2.936029319421    1.390297802024
 H    1.435765058077    4.110005503527    0.225904394336
