35
ile_c22
C -0.3086249145074833 1.4715384948008243 0.4262253325066141
C -0.03234845680725466 0.051705958193170955 0.0848383080601982
C -1.2222970557420563 -0.8504125510519304 0.41099816275581863
C -0.8330650494230065 -2.2374471556984727 -0.0829677952352199
C -1.9772151816829324 -3.1758469784244183 0.2139556120721887
O -1.5268658594887234 1.887750356558537 -0.12947567576349148
N 0.7691647001390289 2.345150605775358 0.019067356226097638
N 1.1355593513551843 -0.5226792982478828 0.5844764847471406
C -2.4449414456355423 -0.4381610751525121 -0.35925508808800577
C 2.4105835313947486 -0.06804709145660447 0.2041057398900409
O 3.4440108728749683 -0.8476821294535022 0.7968505835396938
C 2.607021300042922 -0.2923659521539785 -1.288446049869259
C 0.41490471792996975 3.7435312071944895 0.20831926024905642
H -0.4186063183334354 1.581880336470451 1.5247187173161088
H 0.026546610266254548 -0.011782037631469077 -1.056785598138688
H -1.3693065867523997 -0.8907646572407995 1.4883602396774043
H -0.7120351744229113 -2.2254570955727564 -1.2027298753690203
H 0.12350637993335441 -2.5848972770627587 0.3483393412446296
H -2.611058449721303 -2.864217421295504 1.05229885911338
H -1.5496918798626604 -4.190881863444822 0.46388444945033974
H -2.625273288670224 -3.345851623894901 -0.686224672116227
H -1.9802077325924072 2.499461018511277 0.4718024989689864
H 1.0141979720888068 2.2500376645574134 -0.9812688676568719
H 1.0717783036847597 -1.081739594496884 1.4609995668508047
H -3.130763810163025 0.22812162335141062 0.19170054630910674
H -2.1206210436648103 -0.03635291800456271 -1.343812791251465
H -3.0297676826586906 -1.3546821055326979 -0.5992112659482349
H 2.5960350347012695 0.9864060476955431 0.40305490641851616
H 3.125002131133982 -1.1866544685475466 1.671886942071504
H 2.5835533974320963 -1.4072005973104047 -1.423724676170746
H 3.6468536793505333 0.009249691361081894 -1.5565335619130005
H 1.8410654590312852 0.2150510329500731 -1.8730550012907559
H 1.1763942487352315 4.333327029281697 -0.3767573877266164
H -0.5547346899123257 3.9179397092159753 -0.30405913834305065
H 0.4612469299467465 4.0919731157571615 1.2384245374130334