35
ile_c20
C 0.9068025710147722 0.665134536398957 -0.8721430274013134
C -0.24479449128879427 -0.021175700022973892 -0.24296246778500155
C -0.24034044348750458 -1.5249934327974428 -0.4074112270867024
C 0.6071229663221112 -2.3111097662472226 0.5056157261789682
C 0.18200770355903037 -2.122375473682424 1.9356855918256506
O 0.8277187667966006 2.0438667659271617 -0.5354081410253385
N 2.225169451394765 0.23765204546661967 -0.5304734716945878
N -1.4758047318886744 0.46247688094909123 -0.6885125797496502
C -0.21600489473298534 -2.0072455263060736 -1.8130600747255137
C -1.9646627955502531 1.7347024911201447 -0.44585720674261375
O -1.4600371613966772 2.8273220947892033 -1.0977396241959583
C -2.1553086387482265 2.079767957895632 1.0252668531604963
C 2.635266209851471 0.4760798026648479 0.8175909535754095
H 0.7637831760039185 0.6813581869077492 -1.989146759601008
H -0.1662992744687003 0.1389665710800338 0.8771081084580227
H -1.323767597675555 -1.798758290630637 -0.05584844147051395
H 0.3844768238622656 -3.4003536755601935 0.2793651944905425
H 1.6884727081038708 -2.2298722844535224 0.3445998970328401
H -0.9315777429079566 -2.339864083377136 1.942081120609628
H 0.34606129012256925 -1.1120478759453831 2.279980604509376
H 0.700598559352727 -2.8654922154955007 2.617482012387228
H 1.3526695098220134 2.5688493072463867 -1.2100274011414167
H 2.877394978971992 0.8130415041865149 -1.1514243863854183
H -2.0058903829110633 -0.15042609069423343 -1.3479431585871235
H -1.1788163095552402 -2.3772070214416594 -2.218030682977163
H 0.13997192920636126 -1.247048321439889 -2.542935658047745
H 0.4847065833148699 -2.8865795020022498 -1.9353773749116416
H -3.0703012307106223 1.6966276373914615 -0.8050358232536604
H -1.4308417441149899 3.597325582991836 -0.4631478096663972
H -2.7596952181149637 1.3055965726797238 1.5424225810891672
H -2.7489501054335004 3.016189926020187 1.0458879431467918
H -1.1977161442610942 2.324529635659272 1.52006499866334
H 2.2720000561423275 1.4558690391156888 1.211914430377318
H 3.7675533280117737 0.5902982346056734 0.8828825583543595
H 2.4090322953933816 -0.32110551299973505 1.524536742589722