35

 C    0.949635806163    0.249308617635   -0.895881225383
 C   -0.250087339363   -0.210143716371   -0.037769438756
 C   -0.452258377882   -1.755873049953    0.001599936737
 C    0.410101506064   -2.524948174367    1.018980332122
 C    0.119268807947   -2.192833396903    2.484987171675
 O    1.037005303333    1.660525234826   -0.768038482287
 N    2.192212057205   -0.398101498442   -0.576918214094
 N   -1.513734742147    0.374797198097   -0.470022296011
 C   -0.351923967176   -2.418518874807   -1.380005414827
 C   -1.985630725467    1.697827609414   -0.135266770580
 O   -1.550269951008    2.705914082181   -1.006491190580
 C   -1.713040810322    2.076273292332    1.315093177654
 C    2.881111476665    0.023130106835    0.631153269529
 H    0.735529331154    0.010899028392   -1.932048943555
 H   -0.075313109661    0.129589348760    0.972166291775
 H   -1.480982588211   -1.863036112283    0.328460303156
 H    0.207055749356   -3.584151757825    0.875273996479
 H    1.461712395067   -2.388861146731    0.802725240971
 H   -0.928461939725   -2.355204349968    2.721978741731
 H    0.353460016020   -1.163501725518    2.737169337031
 H    0.707237319946   -2.825717041082    3.143153267605
 H    1.723961508174    1.984985362063   -1.335451606054
 H    2.814638291985   -0.363426622430   -1.359054110600
 H   -1.711917291961    0.180785706856   -1.430333093408
 H   -0.951854471589   -1.905691918772   -2.126869681573
 H    0.672494404187   -2.454821988993   -1.733880226197
 H   -0.717136587728   -3.439464136307   -1.328878662020
 H   -3.057841526448    1.670592381892   -0.282154739194
 H   -0.600752147396    2.693432075119   -0.996691356622
 H   -2.060668076893    1.305795864375    1.995285817686
 H   -2.237158944337    2.998366016814    1.536776842947
 H   -0.656627703243    2.248689937462    1.489020686909
 H    3.191670953290    1.065142599317    0.622158073124
 H    3.759924435844   -0.597117310249    0.761571538455
 H    2.247194529306   -0.123769124067    1.494344942973
