35

 C   -0.359607743115    1.203431005274   -0.039221204657
 C   -0.084713845591   -0.255767428076   -0.494530440663
 C   -1.302903073163   -0.973960430412   -1.140972582896
 C   -2.359291471136   -1.535165509421   -0.169864010521
 C   -3.090382443389   -0.533392906543    0.728501831491
 O   -1.266825273470    1.879419403662   -0.874762314037
 N    0.887325829316    1.920123118322    0.101569697289
 N    0.474135769899   -1.106573376407    0.543660990021
 C   -0.794799536564   -2.115504950309   -2.031743889581
 C    1.856272435797   -1.078549462301    0.969224369407
 O    2.177352387352   -0.020946964636    1.826461244199
 C    2.836428902891   -1.160185424302   -0.195548240677
 C    0.759766479820    3.261873935015    0.655089974448
 H   -0.833402259580    1.203823604873    0.929800563936
 H    0.656916621476   -0.183805151384   -1.285144157259
 H   -1.806389328746   -0.258682643671   -1.782091596639
 H   -1.908352386746   -2.312911161155    0.439433636221
 H   -3.104840097684   -2.036486018833   -0.781646912314
 H   -2.461009600550   -0.153435322802    1.526398307409
 H   -3.941755659698   -1.012608561983    1.202249638141
 H   -3.455294352295    0.317278466059    0.163693578931
 H   -0.959689133274    1.860770552524   -1.772073919850
 H    1.359991684498    1.961295694000   -0.782396619132
 H   -0.113097432330   -1.120722690900    1.352535269373
 H   -0.252568152462   -2.849664931524   -1.447173596344
 H   -0.129351556530   -1.747053134738   -2.808314994273
 H   -1.621504048484   -2.618502771528   -2.524183140061
 H    1.984425323923   -1.966535876594    1.574448503081
 H    1.957332507167    0.790025487650    1.374877408727
 H    3.833927181086   -1.309959022882    0.199980245207
 H    2.593756965385   -1.984954693752   -0.856556152170
 H    2.853990133935   -0.243163871306   -0.774951965947
 H    1.742271362399    3.714508705856    0.714574006153
 H    0.107711661390    3.906686249098    0.074315537915
 H    0.363760285637    3.194742212307    1.661615383809
