35

 C    0.699813826211   -1.146258681575    0.855473246330
 C    0.180601650463   -0.341976700035   -0.358868599614
 C    1.049331249735    0.822402359066   -0.895737599258
 C    1.383562596227    1.977318537911    0.072082366064
 C    0.231103625031    2.855440351886    0.566692164508
 O    0.641002238620   -0.333352067712    1.989396659518
 N    1.987965940032   -1.800623609981    0.788741057539
 N   -1.194114563143    0.072319152170   -0.113633125077
 C    0.441095064070    1.348039750282   -2.202843380417
 C   -2.266757819301   -0.564509913193   -0.818725041039
 O   -3.368583334296    0.293295666587   -0.680743232604
 C   -2.638640881643   -1.967297141213   -0.330606383474
 C    3.231786420495   -1.059565569974    0.874386673007
 H   -0.012785101715   -1.960072261259    0.967104502750
 H    0.164965379467   -1.072687545003   -1.166926420372
 H    2.004386921367    0.379444235272   -1.164928055841
 H    2.095317813170    2.614931908307   -0.450214220824
 H    1.907114189590    1.585165476366    0.934035258136
 H   -0.358351043852    3.258729663973   -0.248702132140
 H   -0.437314536414    2.312717789202    1.220173706106
 H    0.633172938056    3.694894996519    1.128024360658
 H    0.853351028899   -0.865514511684    2.745598884841
 H    2.006810192408   -2.484901050692    0.060837211046
 H   -1.399428537593    0.183881543461    0.857366867985
 H    0.380733984928    0.559493567738   -2.949598638554
 H    1.056869388627    2.140583592685   -2.618523985860
 H   -0.556599584351    1.737903228562   -2.049418552366
 H   -1.974897092247   -0.625066101031   -1.864156022747
 H   -4.140646795495   -0.120965505301   -1.040027179596
 H   -1.809980507698   -2.657674228223   -0.447117265023
 H   -2.921263412272   -1.935394415055    0.717073383729
 H   -3.475837456816   -2.369081298107   -0.897644857576
 H    4.032015172712   -1.764490954852    1.071248857677
 H    3.497377707425   -0.492110414927   -0.013148905230
 H    3.186285198053   -0.374288282252    1.708705156116
