35
ile_c3
C -0.8714848718000663 1.158863281267334 0.05984502629868576
C -0.11668311119520307 -0.11481371435385349 -0.017333581677907293
C 1.3894308786383194 0.004825540079907888 -0.09554672050546739
C 2.0284790704589755 0.43541094610195047 1.1632141631513535
C 3.5426862671634214 0.5183763949707704 1.0676059093616956
O -0.5033044976346003 1.9808990407055878 1.1201899911850803
N -2.288002158211666 0.840577699028326 0.30689144042098604
N -0.6194668021679879 -0.8829593282497855 -1.1507842503216568
C 1.8482793202022185 0.7923257596488922 -1.270068009802004
C -0.6897459320204058 -2.2923956337390683 -0.8746712666502525
O -0.7755944887601292 -3.120763322679249 -1.9637022311172834
C -1.7286709942178153 -2.6403015819856255 0.1572675705414136
C -2.9728283840661116 2.1448546874455316 0.08921302363202979
H -0.9044707465501196 1.72597268748453 -0.902220233852714
H -0.34607617754464803 -0.702738178251975 0.8923979616308231
H 1.744976651082586 -1.06264750840103 -0.2734071945228659
H 1.8005646630055663 -0.31524003135691386 1.977121027224525
H 1.6018104865822718 1.4080695715666116 1.4901579577311257
H 4.004556436825167 -0.16429515038198733 1.8396135679304406
H 3.957061660053082 0.2022294335189982 0.09339455796853674
H 3.8959300037510713 1.5331193696494143 1.3401767771548314
H -0.8519229666094525 1.5523954962137736 1.9447571719132122
H -2.403032905849291 0.6107571262493311 1.3314716696738003
H -1.4067912801922304 -0.46429305052527436 -1.640086091466192
H 2.0015589549761343 0.18186442502495034 -2.1922180678798053
H 2.784560271614131 1.343839420297373 -1.0694372267790937
H 1.121621402577236 1.5963605545198427 -1.5576304114813555
H 0.29523879101489414 -2.5415073148865694 -0.35777345289376605
H -0.25067583594265064 -2.751793076815553 -2.706999951816559
H -1.5896621524888928 -2.165921913272451 1.144023732540301
H -2.768908462766601 -2.4128322714466073 -0.2335326632655496
H -1.6684549005368796 -3.7625023785670026 0.35866095040877966
H -2.8115174505804688 2.8247608792643457 0.9304110380547375
H -2.4547170568666776 2.5979084108467476 -0.7923732716511289
H -3.9947436819430964 1.9415937310288027 -0.2086289111387481