35
ile_c19
C 0.4409762398296498 -1.1871942406477003 0.762495521689171
C 0.0834098989607737 -0.2771784220256331 -0.35577068788334804
C 1.031859289161247 0.8728678985033189 -0.5981720487027714
C 1.1683365849828682 1.8725951923986766 0.4835934369540118
C -0.06685434183150385 2.6485419984189824 0.8426425732188855
O 0.2927385049416084 -0.5985112711360648 2.0306710423991863
N 1.6650272743014785 -1.8556518484135842 0.6712145147170115
N -1.2812317695406124 0.1449340434165442 -0.42732475734591124
C 0.5026310958557866 1.6437895566850516 -1.8346980453510253
C -2.2930312732252482 -0.7709746404999571 -0.8062096712421857
O -3.5028073663239185 -0.014072233636513064 -0.9668908965135892
C -2.631693283674695 -1.9376229330139003 0.0122824841540038
C 2.9230193129092834 -1.2375865452044021 0.6693994249137157
H -0.3377393800087655 -2.031704985988037 0.7507153244931759
H 0.2175913761733825 -0.927909725957075 -1.2920064562292777
H 1.9960115999981416 0.48964188201775666 -0.9018362148587572
H 1.9347955473801466 2.618261769714336 0.1408686669490346
H 1.5637408105110546 1.4778799346511737 1.4372666841682373
H -0.8790664598625382 2.549597099996238 0.11849816988964783
H -0.4300378498857971 2.301006556268517 1.825173525129303
H 0.1666437434460469 3.744974099444825 0.9822030756558336
H 1.0988491679586407 -0.6936497808833879 2.575912475080327
H 1.6700197892392123 -2.766791407319985 0.14423793549624409
H -1.5963110419025577 0.4729842907993466 0.5695280592504901
H -0.3409895334328741 1.0792789712301591 -2.273945594648605
H 1.2909604971060127 1.722046577538437 -2.6156053390881198
H 0.16042323112808063 2.645880829533371 -1.595364272140625
H -2.125785605583948 -1.1493434242457303 -1.8671667142267188
H -4.266028636741594 -0.6523493703054215 -0.9268107727987928
H -2.1609147665100177 -2.909224209947304 -0.27330203112114426
H -2.6071856929710857 -1.770684966956432 1.100360892019958
H -3.743446574153055 -2.1674695106541138 -0.19603640755733448
H 3.590666773426034 -1.8624066776724437 1.3712892189570005
H 3.438036169181058 -1.2403168289685185 -0.33088020824869496
H 3.027386669157736 -0.23363767714037195 1.083772035990988