35

 C    1.395019152160   -0.804334985129    0.457053535889
 C    0.289709920833   -0.025459660701   -0.271812620741
 C    0.697849052373    1.428787963871   -0.610284285859
 C   -0.316410885243    2.074756247434   -1.576126032725
 C   -0.268395544808    3.604355207066   -1.604071414554
 O    1.778584708745   -0.131657086183    1.630606006434
 N    0.987998979718   -2.164762428840    0.690231201178
 N   -0.908163001143   -0.040788846877    0.584669517184
 C    2.118072670300    1.520883289864   -1.183932578801
 C   -1.994193886634   -0.885074743936    0.182704410395
 O   -2.570510729499   -0.381757383237   -1.005889332396
 C   -3.041363507252   -0.957864797677    1.284765358761
 C    2.044090179316   -3.023801574692    1.197974740790
 H    2.281568005343   -0.844051944383   -0.157280680700
 H    0.081461231521   -0.547992390425   -1.199743458366
 H    0.689362957186    1.988835200842    0.323504780807
 H   -1.322913666096    1.768004359804   -1.322412429158
 H   -0.137528325977    1.687692987932   -2.577419339427
 H   -1.017063911702    3.995908023582   -2.286110081257
 H    0.694184623448    3.985848981193   -1.927134825311
 H   -0.472725394439    4.019496650418   -0.620424078787
 H    0.986677466292    0.049841796728    2.123242914573
 H    0.220252585757   -2.166431087336    1.332632269922
 H   -1.255763730716    0.885036992409    0.736015455155
 H    2.330842786026    2.528630281144   -1.520889318825
 H    2.867004409738    1.264851089603   -0.445945646015
 H    2.237612363258    0.860782115452   -2.040069341501
 H   -1.592004226454   -1.871108733334   -0.013544201552
 H   -3.179722678324   -1.013825647061   -1.362867436413
 H   -3.875275526085   -1.584687478885    0.982580933535
 H   -3.429958398066    0.033156738017    1.497341894014
 H   -2.616850103314   -1.367896180507    2.193963349413
 H    2.825504453102   -3.114114882751    0.451146898503
 H    2.495842777283   -2.663204077895    2.119086113144
 H    1.642263511155   -4.015572676439    1.372578154344
