35

 C   -0.705056813426    0.953171196934   -0.067554445043
 C    0.213305947544   -0.183128327828    0.420442853076
 C    1.659876284982   -0.271677000204   -0.138156774579
 C    2.615390910292    0.816359592318    0.396459093094
 C    4.074035718212    0.355602445667    0.458149182834
 O   -0.988647957891    0.782363194972   -1.437961342130
 N   -0.166436218052    2.245198462291    0.252770036000
 N   -0.426616866011   -1.476334997104    0.183409694065
 C    1.739477500198   -0.402779792917   -1.664753465130
 C   -1.713011614390   -1.738475388881    0.778452531606
 O   -2.734477176965   -1.253574396687   -0.053723596410
 C   -1.891818137883   -3.232704114255    1.005957182921
 C   -1.108784646889    3.343256455717    0.159248878801
 H   -1.629133099859    0.864866769217    0.488256948923
 H    0.307031475189    0.000884338316    1.492286553521
 H    2.032320530569   -1.208676350471    0.277756749960
 H    2.305164026463    1.126317480085    1.388939347704
 H    2.564756730515    1.703213072501   -0.228607399218
 H    4.187128166427   -0.495848417605    1.123539466214
 H    4.450955723308    0.065621401217   -0.517075779627
 H    4.712139967915    1.150960415720    0.831106662364
 H   -1.762499291430    1.281663824628   -1.658620965582
 H    0.629569373916    2.435805427253   -0.319756575408
 H    0.212167762392   -2.211923663459    0.400642380959
 H    2.747123005106   -0.669051898488   -1.968415840339
 H    1.064486919639   -1.167215834435   -2.025730933326
 H    1.473877282352    0.524132508629   -2.157864376197
 H   -1.835895699724   -1.217479369196    1.727036398364
 H   -2.373874775268   -1.221879967209   -0.931787331556
 H   -1.745487798151   -3.771297019658    0.074756576281
 H   -2.896593912593   -3.428707887306    1.359146690553
 H   -1.187545526846   -3.609223211046    1.742976118278
 H   -1.929227467013    3.177697964334    0.848818899761
 H   -1.528111240042    3.493816381028   -0.837406489900
 H   -0.615554747520    4.262852057456    0.450368726332
