35
ile_c27
C -0.7273257513521191 0.9599396051898457 -0.2912055518256902
C 0.09730962355561222 0.18436776180187048 0.6900903734234128
C 1.4725056493802038 -0.2008291115750864 0.2219561773782356
C 2.4217989720883155 0.9507973908307928 0.1195879570053802
C 3.7911481054216503 0.4318422743901292 -0.3528635074529843
O -0.06198386280414941 1.960855714410397 -0.9668207553602598
N -1.8347297679078687 1.5017594439073552 0.4986136244211345
N -0.615577249318423 -0.8133491346753661 1.3477235013338906
C 1.5189658082007813 -1.0245020393208684 -1.0176165400423904
C -1.171363987429045 -1.9389184844207434 0.7746763367798357
O -1.7628339192437281 -2.6891509450141116 1.8404679753055888
C -2.2642504244644144 -1.7938322610472623 -0.2463403633316305
C -2.648557511965209 2.4354134431212118 -0.20025627064120066
H -1.1926908232856275 0.31582638088271114 -1.0623249124861223
H 0.32455408762021154 0.9730728404195369 1.5084165615117318
H 1.9022391186337884 -0.8210880408203248 1.0925458792876663
H 2.106124259406075 1.8017241549587784 -0.4741354066390876
H 2.6315395446271608 1.2979198876430502 1.1775825656172023
H 4.533166980327659 1.2106367148337007 -0.02453844579807881
H 4.0271945837883685 -0.4785915138753734 0.20717186187600536
H 3.8254595435094205 0.2924263857705579 -1.4338138072065976
H -0.2886343313883535 1.9578544185531002 -1.927847146623868
H -1.5745167103790627 1.7486968162666092 1.4602619670263308
H -0.7362287789441669 -0.697259321740453 2.3879269445166535
H 2.1576596385657667 -1.9243852036175901 -0.852061034921786
H 2.0062902740868425 -0.47354484992952633 -1.867687033214033
H 0.5403033273049398 -1.38048441805574 -1.3899871404671398
H -0.45119706274231774 -2.673522446222459 0.33304105178587223
H -1.557321789556779 -3.6311514110678 1.7751723728560969
H -2.9405254318177745 -0.9554477853713378 -0.0918103993815764
H -2.9315334808213667 -2.715289394721264 -0.14506755556575243
H -1.8951745200144465 -1.9013528038727128 -1.300182648163664
H -2.682648994701595 3.3738421347205256 0.4269697450702817
H -2.313058531345894 2.6569631310706048 -1.2263196364912363
H -3.7061065870345593 2.058760666577322 -0.18943913349621946