41
arg_c28
N -2.6301309891052798 -0.5996369280902959 -0.26555226342754545
C -1.4271673688524131 -0.4088078884899855 0.41175185024159494
C -1.2734013800886046 1.0164062105296525 0.9381037360826222
O -1.2567088361942227 1.958494090756784 -0.09845528967035867
C -0.213665029355051 -0.7600679004964683 -0.41993039940573845
C 1.0932284532388408 -0.6094475848417326 0.29556791372448765
C 2.228571300720832 -0.9849079493183213 -0.6804465123883704
N 3.4919554561422954 -0.9294650217236894 -0.06632531909219691
C 4.034016660225812 0.28650578266696414 0.38954819261825024
N 4.122234367908181 1.373274737400824 -0.5136086404876977
N 5.448241538404397 -0.02336777219858422 0.7559387601401689
N -2.2822750002428833 1.376022918999025 1.8811535996722508
C -2.2776301011782145 0.6643280599299413 3.120587635869474
C -3.0397136967688243 0.0263595564280725 -1.4248921627085558
O -2.1044599577114496 0.7056892874236215 -2.192853070539283
C -3.6081342646415666 -1.053966990765584 -2.3652797962975796
H -3.023232774132889 -1.5376338335775395 -0.11344365833577517
H -1.4132850872428901 -1.0720895487584654 1.3048226265761573
H -0.31225899397634665 1.0637260261164356 1.4589459815630903
H -2.0738443041501915 2.5220416164652852 -0.13108978926109555
H -0.2640252367419994 -1.8342574043036417 -0.7588677994697473
H -0.17541003333328978 -0.10366601105244759 -1.2964449451236253
H 1.1245698755054858 -1.3218585165783534 1.1671337935899633
H 1.2987843974464068 0.3931166138233486 0.7063635212173525
H 2.0729927165300928 -2.0791563391520884 -0.966471605272933
H 2.0670280879538963 -0.4187632728466818 -1.5920870959604223
H 4.181573578698341 -1.659451332577005 -0.33595280880762207
H 3.587708379688332 0.6145599318908492 1.358635998218413
H 3.7957986554940533 2.2852568705317875 -0.14227172463068785
H 4.988496000058815 1.4403169121234056 -1.0810654817377985
H 5.535578217270317 -1.047885836430678 0.9674189890728199
H 6.018117347201083 0.15190700466185839 -0.09384043529943373
H -3.2125437239937633 1.5551627974977065 1.5152743970750688
H -1.3383994216732118 0.9952981470688093 3.678147200669504
H -2.258518971740294 -0.424239660600336 2.978318366598759
H -3.1546857952307623 0.929235416361986 3.760864949604246
H -3.918595766940855 0.7295315924763424 -1.2485187409815701
H -2.496565934523693 0.8256269570843036 -3.1042508081029547
H -3.2293220504857776 -0.9715977967434979 -3.3861416445034216
H -3.3890017386966713 -2.075085862759881 -1.9762131401378369
H -4.715918575486118 -0.9975070789316419 -2.4345743808917937