41
arg_c17
N -0.5278557408750226 1.2168482682248511 0.24559183369717155
C -1.13417190241994 0.4090859778905515 -0.7618574717784993
C -1.9191218067182578 -0.7005659940376282 -0.17481751853121155
O -1.1976614188857635 -1.5471128854003449 0.6398095412705368
C -0.16250995279863797 0.0001999832531989025 -1.8241129632128363
C 0.9962492935919871 -0.8134415601815483 -1.442710344863281
C 1.9082427545805944 -0.18888400960509574 -0.4157620683018247
N 3.043899169577279 -1.0759587362562573 -0.14573643313384474
C 3.9370613620290187 -0.5205781003505697 0.8227987871836704
N 4.479883960973011 0.7601718732658997 0.4178867148706047
N 3.376272456722506 -0.4046041762887659 2.129536727609464
N -2.6023545314105836 -1.4842382838951715 -1.2367873091962671
C -3.419411378664139 -2.513924947860325 -0.6135575052846909
C -1.347658246547529 1.9158063788260637 1.158654424567503
O -2.099261338957574 1.0799028284860392 1.9427144616813756
C -2.242910935848345 2.8805354342419487 0.37847963899075016
H 0.24584527444154586 1.8302106641786435 -0.15329099781909977
H -1.894494888730488 1.0771436545265527 -1.275004746120883
H -2.7559060619838815 -0.2950497828911734 0.40160316919054767
H -1.4601621840866417 -1.5660622344708337 1.574339293903576
H -0.7078738460491991 -0.450190757343409 -2.6875054366605147
H 0.23444468789624645 0.97081482165905 -2.2543109152919203
H 1.656162134673079 -0.9225374778984475 -2.3593308870565775
H 0.7607195508751078 -1.8736059196038526 -1.190136548711595
H 2.3264004562284404 0.735639902153759 -0.8472029731689797
H 1.4223053502299448 -0.04711601992066129 0.5749760098629366
H 2.6174323879563555 -1.9461141807865883 0.2844325613004633
H 4.819288702378627 -1.2205182067628217 0.9180549215043314
H 4.851104414553173 1.2970199868670929 1.233391640122571
H 5.261229938195038 0.6408877438618802 -0.2561603181050782
H 4.079445263113372 -0.2865930414066458 2.871601737491752
H 2.7100366937619023 -1.1611592397547592 2.381564745861203
H -3.2753572700924383 -0.7959479681297439 -1.654830129330692
H -2.9702509157816523 -2.7998388397037397 0.3520119127670271
H -4.454686253838075 -2.1229666834282366 -0.3913060690597153
H -3.5526292608838705 -3.3575853459241225 -1.3194917720114694
H -0.6779351602018726 2.5286989534396707 1.844378278529247
H -2.9642958118041247 1.4787126701624307 2.2426646451746035
H -1.7185497033863728 3.166373915531124 -0.5550737456116336
H -3.197776048079521 2.370824251644023 0.12798078792435938
H -2.443189193733479 3.735717083687609 1.0301765024856295