41
arg_c22
N -1.993450930235095 -0.6772774009949971 -1.0663188880903098
C -1.2480249204849783 -0.13590298542982437 0.023827474880322462
C -1.876150068959243 1.1586235316389684 0.44122052703637854
O -1.3312621489963512 1.797712376310142 1.530164310916219
C 0.16891547563381848 0.01060796247104398 -0.40793122585143277
C 1.0981442036336209 0.503797275314067 0.6532884796607696
C 2.5190154108136182 0.6676468960106522 0.22897565740312756
N 3.2066647844672955 -0.5495342297874592 -0.17267958898147062
C 4.573376809484644 -0.11827460357287167 -0.5532608735022743
N 5.4435567375048866 -1.1938446288517905 -0.8101428992325731
N 5.005561800059602 0.8416828425980176 0.40494399389653574
N -3.2918414935229627 1.175698965487155 0.3857036169070002
C -3.8091235650188118 2.2958594359331967 -0.4020271532565335
C -2.949863889566792 -1.67429452338465 -0.7160023152715072
O -3.843032476296706 -1.3597361215589756 0.2833723562611843
C -2.1991036918203513 -2.929562644012212 -0.2148175926506284
H -2.343768654476739 0.0347973146833184 -1.7334902505208067
H -1.3414778057559174 -0.8152470567474361 0.9259008070315234
H -1.565335055310753 1.8651576501821596 -0.45916625457908145
H -1.9535325369903929 2.4768388896641773 1.9164651224109097
H 0.5422728478511094 -1.014088262930588 -0.6961473035115933
H 0.20873955218689286 0.6529054056128833 -1.3049641913860373
H 1.117252059843454 -0.26330208735648436 1.5157040446862504
H 0.7574842354536749 1.4256096747506144 1.1120929501816077
H 3.1108908891723526 1.045191247236155 1.1114603854377587
H 2.6397216694077623 1.4249484039361886 -0.6059245713920871
H 2.7611135722430453 -0.9225828933113189 -1.0603465560417238
H 4.436380316589875 0.4149895475661568 -1.5646141397624322
H 6.057228017362898 -1.3941839406400216 -0.019691622157698128
H 5.066769760412584 -2.021288784382949 -1.2732859022548135
H 5.195921483038457 1.7910657798145277 0.07973632774976415
H 5.5245342538244415 0.489198923721704 1.2065446289833157
H -3.7854744363740895 1.1273065024523479 1.3092736631831312
H -4.536348822231877 1.9475382895770315 -1.1478402317409453
H -4.347531386236601 2.973531301892717 0.3029293608842349
H -2.995974691221252 2.8568323149740973 -0.9137771627089012
H -3.495675433233102 -1.9836598855212875 -1.6175313547042902
H -4.438886504859548 -2.1560939530267254 0.399255669849144
H -2.9442704537481816 -3.6954071144057505 0.03057909176502277
H -1.5628505475972947 -3.3327514394130384 -1.0502309855131735
H -1.58056436604702 -2.740507976499031 0.6629100768319713