41
arg_c8
N -1.6269498088912426 1.0532466212203588 -0.27787696406580703
C -1.2787488836027074 -0.28121550925380984 -0.42132548225147903
C -2.3244597477824342 -1.1610802739362858 0.2408912056610418
O -3.550800875154829 -0.8496388209284818 -0.4045701591409878
C 0.11314548134462561 -0.7261476503848824 -0.3162220928738105
C 0.9035753983524314 -0.530895298173844 0.9034842027033343
C 2.339796561359346 -1.0907871321809597 0.7134367907174463
N 3.003827532270981 -0.41067086324061214 -0.36010114379630626
C 3.2887949520463176 0.9506650858713918 -0.0631771750205901
N 3.907845993522404 1.5641244514470876 -1.241037843057567
N 4.226946773244039 0.966217974940103 1.0567986282239947
N -2.1101144996484376 -2.530729275045537 0.06729961774404153
C -2.154892008907589 -3.1260279644808127 -1.1893317647967927
C -1.8218692568071235 1.7423178646141715 0.8977599037503321
O -0.7656193137649271 2.3268057568605265 1.5524831128692023
C -2.7893787543665574 2.9222821287461755 0.5773142555028614
H -2.122517860237908 1.4447917778178656 -1.0805430949154797
H -1.5261860633466948 -0.49973612583315646 -1.5506635802559285
H -2.491688432044157 -0.880288861324573 1.2957209384938095
H -3.516609587535758 -0.9016633297404867 -1.3649497727574844
H 0.6932908217639204 -0.2750188410077943 -1.1784650642973074
H 0.21638801868534402 -1.8390332059981322 -0.5675336742444701
H 0.5469346541951882 -1.0643917871782433 1.8039221176976477
H 1.0931164447304278 0.5060821291023548 1.2269430283241558
H 2.8604731295822705 -0.9560336783179978 1.6760879723911903
H 2.210031783525625 -2.160879055817479 0.5246813695291795
H 2.676742763462458 -0.6456201663394487 -1.2902462945440856
H 2.4275245565870667 1.5847196876441738 0.20513268459912667
H 4.616621538071951 0.9260173090739704 -1.655023309847258
H 4.306727112770515 2.5173504447747144 -1.0169099319251929
H 4.7924638777250825 0.09122024848794488 1.0096744898472452
H 4.782098663646145 1.8244518010531725 1.1274411309883823
H -2.1302627953778797 -3.1782979199809667 0.8376241758036387
H -2.851773159107911 -2.702005536972807 -1.9463364698892847
H -1.165380758892046 -3.3365620333667243 -1.6923349255381421
H -2.557577470239339 -4.185507020263284 -1.0515583487695679
H -2.381951169618034 1.1459677548013563 1.6764277474079812
H -0.7595554104792895 2.150542107191246 2.5299047431406345
H -2.244438169261325 3.8814241618322125 0.6052048641200817
H -3.16727801340405 2.8207365786074656 -0.4849860024026448
H -3.6682940184163253 2.913266465680415 1.222050148313963