41

 N   -2.650358315116   -0.644111279495   -0.230856932416
 C   -1.442127828278   -0.128753040063    0.417856080366
 C   -1.650684578333    1.355786127838    0.785668785879
 O   -0.787271997262    1.742790036532    1.826351984550
 C   -0.214926365117   -0.411977292814   -0.456540007145
 C    1.134937027219   -0.021920843867    0.146648682798
 C    2.296650462069   -0.437022251366   -0.751119901156
 N    3.566648978374   -0.062000013119   -0.145644998269
 C    4.747619260026   -0.358877854338   -0.930468123205
 N    4.877501720967   -1.791592118484   -1.004969670036
 N    5.927335335201    0.269760290157   -0.368765843877
 N   -1.356761957196    2.268650794349   -0.295941736460
 C   -2.425994482630    2.467627362581   -1.256155511288
 C   -3.469805914253   -1.517965206209    0.556694391432
 O   -3.966366917879   -0.751763897088    1.625717763677
 C   -4.604196708006   -2.080378949628   -0.285424564818
 H   -2.436739115788   -1.074768429836   -1.106235950747
 H   -1.309945627629   -0.652653748779    1.363815850299
 H   -2.681246448446    1.454946274845    1.120642498296
 H   -1.078222121810    1.339856051318    2.632120217945
 H   -0.207109874529   -1.482500995506   -0.661854767321
 H   -0.341078323331    0.092176722631   -1.409698630979
 H    1.161032307307    1.047852025283    0.311658285757
 H    1.261806723109   -0.491904550257    1.118246071320
 H    2.172972144680    0.012914345251   -1.740896758650
 H    2.297190475579   -1.509172361465   -0.895211669938
 H    3.555622151181    0.917938650674    0.062035874058
 H    4.663055794286    0.009066786593   -1.953159275614
 H    5.740054692326   -2.023912665426   -1.458246949518
 H    4.906660758642   -2.169311406938   -0.075951084480
 H    5.966757985454    0.094662787557    0.618992931069
 H    5.907060453827    1.264125196775   -0.497713003735
 H   -1.110985392144    3.143031659097    0.123406307819
 H   -3.378293007214    2.740129215933   -0.797717482995
 H   -2.135741720393    3.257495704124   -1.939625880170
 H   -2.589540125204    1.568866745352   -1.833737002532
 H   -2.886812416929   -2.344874040494    0.977405373725
 H   -4.354145172240   -1.328968525328    2.268872269325
 H   -5.192230767550   -1.266217056404   -0.691109722671
 H   -4.224710665792   -2.686374572252   -1.103147445920
 H   -5.249909639031   -2.710139118855    0.319492343177
