41
arg_c20
N -1.513917626594771 1.3586738128882256 1.1788970334647215
C -1.2473788265254149 0.37818369021984166 0.12699907196801177
C -1.7102757428455275 -0.9877763184833166 0.5197357236805341
O -3.0646291364143434 -1.0760971046636816 0.8316716705988118
C 0.26953920239728457 0.3741777039482398 0.028037732316086233
C 0.8657965930498646 -0.5046046713475765 -0.9929090150359805
C 2.4031838810327675 -0.33491141097575194 -0.9381477782295713
N 2.8059414119637545 -0.7588214959468513 0.3936008009613323
C 4.232527335091406 -0.5891502908976686 0.6021962464772943
N 4.954036589084806 -1.3604635028608492 -0.37567404466814497
N 4.598366301513564 0.8132200678400116 0.5665343809371622
N -1.4648064952832562 -1.94758754498309 -0.5214079063659629
C -2.196044160405839 -1.7153642649810887 -1.736748266806997
C -2.8715212817340796 1.6372437442949037 1.4539192674511925
O -2.8559268710176644 2.6796704319083298 2.426786611796648
C -3.6004069067375406 2.2618231684490646 0.27386957803228956
H -1.0493743542850744 2.2419229268294334 0.8765099417431746
H -1.653223575519229 0.6995330278696312 -0.8368971934445437
H -1.1370615501747745 -1.26357165535368 1.4524057065901317
H -3.620055221934008 -0.7691957165531335 0.09410036390484998
H 0.7187981390344002 0.07820149635028288 1.0173648369121933
H 0.6846528693954685 1.4104785981445167 -0.1310136896906987
H 0.7144035628051426 -1.5786222464786346 -0.7989035893868001
H 0.5506725657627924 -0.29636989985283313 -2.0319183253569855
H 2.64896193117458 0.7358752639928083 -1.0626515400719976
H 2.8844949451193966 -0.894243590120257 -1.7391038475330614
H 2.646781768131511 -1.8029654143563332 0.4701696273145724
H 4.468454326284823 -1.0329697119450008 1.6007820723987225
H 4.370091155580438 -1.9749421577696449 -0.9463929446204361
H 5.703104990642883 -0.8434406210908005 -0.8760566355768615
H 3.7685605389488597 1.3648627252465755 0.8472407340412619
H 4.839784165327838 1.0537514406730861 -0.40266992151474373
H -1.6381738997700768 -2.9294963061548565 -0.2196918311051048
H -3.2987572810312416 -1.8821732554811554 -1.5408776633851977
H -2.0868745790214325 -0.7063201860667999 -2.1574314792223523
H -1.9531689185712324 -2.4844897071759626 -2.509106193896828
H -3.4987729989572793 0.8732430219303102 1.883566196006553
H -2.2485614254366872 2.4282020556684714 3.1714689827959512
H -4.375980687785688 2.980904439754347 0.6524810637851426
H -2.904685057587817 2.8667783651440644 -0.3498105743142926
H -4.138555674708235 1.4968310923868695 -0.30092520294998065