41
arg_c42
N -2.1955365172088714 -1.438754354412606 0.31829396262099247
C -1.4383215052040685 -0.28666031162362665 0.7783613976975691
C -2.2908413542588697 0.8803437191275251 0.4099507455179676
O -3.5159474974885723 0.8485812950368058 1.1176639944024533
C -0.020054401588204686 -0.2714408561357682 0.3821929743374198
C 0.8159515312997463 0.8540718199553564 0.9292100021441507
C 2.228612346024989 0.7905460830595094 0.387674036979213
N 2.8776031137549074 -0.45609306935007277 0.6777982321145164
C 4.254487745824136 -0.450938498857792 0.17884466536587873
N 5.05266492076965 0.5447944220704058 0.8658044726834528
N 4.252980099332124 -0.047147138364438915 -1.2293489333891638
N -1.7869072956406211 2.18064081954175 0.3747681487716974
C -2.9778178690429455 3.072151170650096 0.36082270064783595
C -2.4418668153075407 -1.5901737508918439 -1.0452402134268426
O -1.6593844089152803 -0.8799923559416313 -1.9331883400686523
C -2.2236148138198932 -3.072302915095649 -1.4263360855483282
H -2.1257729366527593 -2.256148482481598 0.9182897716075551
H -1.4654860634425664 -0.357170676882531 1.900056376336391
H -2.6679908662734158 0.6833373158325834 -0.6702605528445373
H -3.371140830547574 0.3802852089034669 1.9853347345090195
H 0.4440217113439348 -1.200744532434627 0.8646211028704184
H 0.17414285529304058 -0.35982901761790526 -0.7166083314907887
H 0.3801341689521194 1.8403001665346477 0.8369325876313114
H 0.919034131356246 0.7066732480118457 2.064949380155672
H 2.799267374756173 1.613679015055984 0.9088555216745194
H 2.2196580292619927 1.0062705933245717 -0.6859752135375542
H 2.3485767477914146 -1.2259423918038015 0.20045240363529815
H 4.715890187743903 -1.437023916634754 0.29237012181572564
H 4.915072471874548 0.5040700344774361 1.9054373482484956
H 6.05001031179887 0.34157917172695085 0.6138119178723673
H 5.202150081102772 0.16896276600790328 -1.5488098934046226
H 3.6790412708158864 -0.6497221227572104 -1.8150647278556624
H -1.3072446180577166 2.397145967635487 -0.5746915755822226
H -3.5211370180982047 3.0183547165314537 1.3170416740206012
H -3.677937293376388 2.690231162461632 -0.42959136122677666
H -2.6832409981414824 4.118854548540254 0.1754534243844925
H -3.515211182153002 -1.3552738027584865 -1.327751655203381
H -1.8989481465593503 -1.1016354397783754 -2.8420112539368927
H -2.550705999821561 -3.698578287459246 -0.5823638998612198
H -2.8454981253883886 -3.249609997293117 -2.342112531307871
H -1.1486925421092875 -3.2556913259105693 -1.5956371293605833