41
arg_c33
N -2.2549228610991645 0.9598657614764683 0.7582155627254755
C -1.4427730926308124 0.021150768134641354 0.07158047966698637
C -1.6343639522971647 -1.3380793148613355 0.7083364563877134
O -1.264524156579684 -1.3371044872179048 2.0429328342772295
C 0.013030860062790557 0.4146613012922381 -0.03236684938224059
C 0.7924350465096329 -0.6617882699187175 -0.7646586999196998
C 2.248862770556836 -0.28933942614367186 -0.8915146462154134
N 2.8950620179356386 -0.0740831314698424 0.38733635377631975
C 4.299561098136991 0.20783491441395574 0.0806094595729309
N 4.959751396097322 -0.9469258851601107 -0.5170914342391565
N 5.017804801417297 0.6151010638554796 1.2557062035343953
N -3.0852569958461826 -1.6214953894856812 0.6758052095333911
C -3.2462139514862907 -3.0583267918757784 0.724402307698569
C -2.4263871988657564 2.2353075850431816 0.1707453549208222
O -1.2863938950615268 3.035076862112712 0.14536677212411805
C -3.115866866059833 2.204053728433343 -1.1744891776401123
H -2.0183910405134995 1.0830064588935753 1.7706614556020257
H -1.82326112352389 -0.0632071409135646 -0.9742724298925749
H -1.1781585981095892 -2.1651269376863285 0.13583832196950293
H -2.0417815652520157 -1.0215217058315265 2.570694858867405
H 0.12497755232446496 1.3443559025991587 -0.6328851318307236
H 0.47781735830444433 0.5997847038108454 0.945386807366073
H 0.7735297542878512 -1.6446881274119585 -0.24373353887949925
H 0.41753666021529473 -0.7567647502487189 -1.8254333939430851
H 2.416870273326679 0.5796043032155649 -1.5796379193022436
H 2.754575808307047 -1.1466284418511514 -1.3763700063586928
H 2.521433476991726 0.8610930797878347 0.7452744210194877
H 4.365644355481476 1.0709625087763446 -0.6555315340985414
H 4.7349706734899115 -1.833308107038161 -0.009624092385588236
H 4.781671884017742 -1.0124288697719315 -1.5545811078701455
H 6.028641635425652 0.6779089965224709 1.0197988714772068
H 4.706951858200713 1.5415816348956528 1.596267321254892
H -3.5006333447312863 -1.2014728761872544 -0.17714115512263168
H -2.5682054320695458 -3.463987262496156 1.494190212555458
H -4.274129294541519 -3.3588830297247676 0.9844050615668662
H -2.9289161664244285 -3.4593670643013916 -0.2696353785386359
H -3.152152026404131 2.7937348488995934 0.8463165502424308
H -1.1196377762100669 3.443315888704617 -0.7250762666135891
H -4.009973665572674 1.5540556089505646 -1.081413533293628
H -3.5076412377857675 3.2397119735428612 -1.3464762409516835
H -2.451545040024767 1.9723591162351075 -1.9998729787482217