41
arg_c31
N -2.0354514849580525 0.7762421633909221 -0.9346475331829627
C -1.0878245035268843 -0.1960505107637756 -0.8083045989221672
C -1.3633189783486392 -1.6204279839706657 -0.5423637623440554
O -2.178162203105273 -2.050424542357296 -1.662743248664081
C 0.1265945150546392 0.26765771804411714 0.08251133118683139
C 1.142193131503504 -0.8463585390175454 0.1833549435962487
C 2.344401733594267 -0.4750851829515787 1.0211254349827297
N 3.0983325552288834 0.6084485059261112 0.5548474693478285
C 3.811396070266957 0.45417014401721045 -0.6550892355678005
N 4.778852994679522 -0.6128351780869007 -0.6792075600313575
N 4.598270218216804 1.6998738778012727 -0.8185963048649937
N -1.8452887265511675 -2.147028229517833 0.6120251731076356
C -3.1578497535405314 -1.8726927906200592 1.0098285026897873
C -2.8572168246177574 1.3999188668858582 -0.02312050724840877
O -3.6220586673218604 2.37222546310722 -0.7853707106312269
C -2.0936262425640857 2.2947535051971144 0.9848108839473045
H -2.464241709662924 0.7070166782247089 -1.9257792940903449
H -0.5254197383534398 -0.2194949839435653 -1.831768964073908
H -0.38390953891960933 -2.1705857951932104 -0.8234445290895476
H -2.838749201577433 -1.3627886593930194 -1.7925647866006216
H -0.3016167301508439 0.42237338695513943 1.0865337321644797
H 0.5423152543919354 1.188882791641077 -0.3144631798177005
H 1.4262692431848858 -1.279898270605731 -0.7841395181638064
H 0.6473220687018361 -1.6750620590446792 0.7724186268774933
H 1.9645781479402258 -0.25984062057415325 2.0459886626527406
H 2.9679631537941287 -1.4047505501028295 1.143548552224506
H 3.3353190188494373 1.3722845818004639 1.1807069457801753
H 3.148888857453462 0.43390689980699326 -1.5705176245616235
H 5.006672253290607 -0.8772093928143102 -1.6722376968056878
H 4.518560901567435 -1.4466427153185502 -0.10905587541111206
H 5.329641669467866 1.767426995188603 -0.04788938756866834
H 3.9647241379776097 2.5294253405009606 -0.5949467519850762
H -1.358132743088275 -2.7965221211848195 1.2237866049264374
H -3.2789871640515873 -1.1504772338984866 1.8632540397098771
H -3.704787462763619 -1.3987436770707273 0.13682886388434684
H -3.7626204877833827 -2.8024640082695207 1.2282954490669729
H -3.5693760062633824 0.8430053973787418 0.5883952062163696
H -4.441252561602383 1.8770692439851118 -1.0571881358483308
H -1.1096222168472865 2.5891217664003237 0.6177334762995962
H -2.0596582259648724 1.8232593826964891 1.9857090443400853
H -2.7131247536006526 3.2383203357507337 1.111736262471907