41

 N   -1.677380384956   -0.961266407685   -1.347579948432
 C   -1.252845760055   -0.090898033091   -0.247623640459
 C   -2.147986020836    1.161906869260   -0.106415965780
 O   -2.066582993469    1.532506971949    1.252772677810
 C    0.228103012466    0.269716948992   -0.455794707397
 C    0.912369039109    1.057612035773    0.665107515080
 C    2.390041543489    1.345645988314    0.400796518262
 N    3.192485746050    0.130134179249    0.357786107591
 C    4.626191516956    0.333860641809    0.280143956051
 N    5.318105225898   -0.902349661720   -0.028813331984
 N    5.059782936640    0.901400928424    1.530645376738
 N   -3.485606597776    0.924569004724   -0.562651085310
 C   -4.386628581750    2.052040725635   -0.460749474970
 C   -2.174430386559   -2.257900947539   -1.010751535911
 O   -3.255241467565   -2.144110703269   -0.096181455755
 C   -1.096020242551   -3.176057960293   -0.450743125757
 H   -2.359287605780   -0.488043482276   -1.903264145566
 H   -1.359311693283   -0.619691526733    0.690876905216
 H   -1.747986319799    1.970837141675   -0.714655324201
 H   -2.352593910863    2.428147615603    1.363000258200
 H    0.745521420873   -0.672490944539   -0.604276406136
 H    0.315749265078    0.811082525786   -1.397101989730
 H    0.823710509855    0.515785182264    1.602066867250
 H    0.411026640673    2.007659742918    0.811168616557
 H    2.778315038474    1.961533134512    1.199384704011
 H    2.489575223370    1.926797598477   -0.521832019551
 H    2.912856348515   -0.433046960332   -0.420116725071
 H    4.898228671002    1.039736464881   -0.504733773165
 H    4.986471102591   -1.636261158523    0.570537456415
 H    5.152829447001   -1.187348082762   -0.976039693583
 H    6.059702506438    0.959077284791    1.541787997512
 H    4.775980042549    0.301723026889    2.283101346359
 H   -3.863023754738    0.114023777280   -0.110353295240
 H   -5.342907585578    1.786692432207   -0.895289563525
 H   -4.568082375907    2.389802907826    0.560247161210
 H   -3.989791740335    2.888417377969   -1.028718464092
 H   -2.549988761901   -2.687953747803   -1.934644355795
 H   -3.541872349332   -3.003993267438    0.180154326670
 H   -1.503473857289   -4.164378257602   -0.252719812613
 H   -0.289640988676   -3.281011577807   -1.166570926789
 H   -0.691806524040   -2.791838286065    0.478509194519
