41
arg_c30
N -1.2596682762643112 1.0149985961324441 -0.2128843467336449
C -1.2518701334319458 -0.3040299721353795 -0.6556010100639623
C -2.5141556310110356 -1.1036066945120517 -0.6316363732941802
O -2.1812339710278414 -2.370590101130312 -1.2777707274950127
C -0.17772923232763324 -1.1538505643695012 0.04733131833864613
C 1.2114555357318044 -0.6039611428778354 -0.1987677158453516
C 2.1730668291642536 -1.490844788355106 0.5113229432405167
N 3.544717008934692 -1.174481348103285 0.42037431996960345
C 4.012754159339317 0.0015005102079160106 1.057115531125603
N 5.4660155507309005 0.060924117955100054 0.819276294654888
N 3.4744385691671753 1.1822681358094675 0.3666467230006442
N -2.912925057340641 -1.4514907730544846 0.7046835193639566
C -3.230584140868773 -0.42484547182327337 1.618749143570361
C -1.9256633946611543 2.002376856941218 -0.9746240509748456
O -1.663026347170484 3.246651393381098 -0.32397090765335046
C -3.3948562418285184 1.8659234615915705 -1.1735825952462462
H -0.5223509844798963 1.3516588681182986 0.41478231767564827
H -0.8684516563441937 -0.27794369253988754 -1.7423317937422234
H -3.338424963706618 -0.7049668938497767 -1.2102853753827378
H -1.6839136407329958 -2.1269291128416725 -2.1007474977206804
H -0.2916415602523928 -2.1780848429634028 -0.3879926987624185
H -0.430896754001793 -1.2293094107474354 1.1102100455254718
H 1.3500978400952155 -0.5806156741659224 -1.2985516173052356
H 1.2478260007281188 0.40384955774606957 0.2551863617388132
H 2.013288470812939 -2.5313797294665 0.13212824476973517
H 1.8754103294062174 -1.5250262363083273 1.5792906892448553
H 3.9407980197397277 -1.301652231218742 -0.5264141095071769
H 3.8713343589869864 0.048657536274842046 2.1344051417992262
H 5.690786169239204 0.5113204510754916 -0.09059351076097788
H 5.8953868740895885 -0.8799320797866745 0.8180235567605911
H 3.932531988071873 2.037001599580481 0.7917380929616057
H 3.8353603494672934 1.1411527265574595 -0.6097695102044449
H -2.3311981405820226 -2.229588033077534 1.0802996443421828
H -2.4908637811234393 0.39549945098468997 1.6334519501194829
H -3.238553717648703 -0.8783746571459901 2.659672724252827
H -4.265685567225701 -0.020085183250858583 1.5016599925093002
H -1.4556477208575769 2.1155347737140753 -2.0127802269916097
H -0.6976803665670996 3.414283657483983 -0.42562670542763464
H -3.6167926224582057 1.4047473126298764 -2.180614472094086
H -3.8416172167254854 2.917246385712617 -1.273864096275051
H -3.949836935066723 1.4259932418270505 -0.3479392134829342