41
arg_c25
N -2.365389619430107 -0.7456153645451196 -0.5369838031145606
C -1.2791278685620828 -0.2951820598899557 0.28121200003255664
C -1.5247110268801713 0.9662992565238602 0.9955793586830407
O -0.42290898847195335 1.2229619117816466 1.880473583525859
C 0.02667588752907761 -0.4501621525582021 -0.4624202529009841
C 1.1817176764586304 0.015781024448586436 0.33673035410513075
C 2.512855357065889 -0.2666777356124824 -0.37566453993916693
N 3.55483879829322 0.23153331198874771 0.46710601069487007
C 4.876144199756537 -0.05606543271429685 -0.04184806805080929
N 5.13663254924859 -1.4860227805727453 -0.0054746520134093205
N 5.843095370095977 0.6903300752647197 0.7208385105446533
N -1.5993883938949363 2.156177225001308 0.16929566293164627
C -2.67850169997164 2.1056238210746434 -0.757488292045032
C -3.5153825482994967 -1.200435622442642 0.11901537787846996
O -4.054918076109841 -0.3272487691022203 1.03433035831255
C -4.599934437657379 -1.6326969802764002 -0.8681880735127406
H -2.1214957265239116 -1.123730930246615 -1.4564164995878266
H -1.1813393445697806 -1.093608859307355 1.1174485449791727
H -2.38829005575983 0.9308120105156945 1.6708843545177359
H -0.5954179527005564 0.7098504286649445 2.700167203587137
H 0.11800509749880947 -1.5046612507572152 -0.8193152255661313
H -0.01907189275509797 0.15727002702651208 -1.4253875738730593
H 1.095467936383082 1.1539284382815251 0.39294217050549457
H 1.1755979016486247 -0.36642814432111714 1.351053280253216
H 2.5102321637112657 0.12674099648212936 -1.3958773581098614
H 2.6128228700874163 -1.3763018893929857 -0.4311944078819289
H 3.4653118947356503 1.2098383558927608 0.7763686838029861
H 4.947440941567735 0.23583088776401426 -1.1335248316910673
H 6.079510265030932 -1.7061572580908975 0.38673195760970647
H 4.372928788060971 -1.9961091578987036 0.501845516651889
H 5.458492040579291 1.4465341542692634 1.306757116202214
H 6.590083343183806 1.0987976161448456 0.10554040790840799
H -1.8096648590070332 2.949117710903452 0.8529869809508684
H -3.6570408142197413 1.8913435964494492 -0.30407056927239845
H -2.7639092529162035 3.12544781526875 -1.2599701547129487
H -2.4547826856323542 1.3393516540185137 -1.5536537105491597
H -3.2544959381931977 -2.136388709124005 0.7226883348688262
H -4.748076062845554 -0.7637069803747722 1.5777673924634235
H -4.239457003425687 -1.4732657001699576 -1.907852331950692
H -4.779863613185314 -2.713319089817791 -0.726807427509297
H -5.504685219923541 -1.0497854505497364 -0.6384214831396975