41
arg_c32
N -2.2592655375531305 -0.9850083978791231 -0.9772375550891188
C -1.5927606752550647 -0.04502205641202116 -0.045437791605613086
C -2.022077356958192 1.3148777315013804 -0.545196766732748
O -3.4404281699187464 1.285111486852702 -0.4713509160073419
C -0.14707746050628354 -0.2459722793977618 -0.3365818521065042
C 0.8430180669102018 0.5554058083531387 0.4339153341058996
C 2.188249593656348 0.010848785441072414 -0.11155616078952346
N 3.3328071731538027 0.5979831923422857 0.4710310940841256
C 4.48659949697656 -0.1586306133364079 -0.02688284019659815
N 4.635707518087428 -0.06179272273151233 -1.450600796904262
N 5.695904856671438 0.13611155213193135 0.7152558390624014
N -1.550477927445953 2.382996269851785 0.31238613751054184
C -2.6447018184934596 3.3474332980203854 0.4753010720693782
C -2.376726698079668 -2.2963791166510097 -0.4395378377100498
O -2.709606997513622 -3.28528777662484 -1.3302732812645672
C -3.3569040798453242 -2.288237513398607 0.7139046870708976
H -1.8431319874175738 -0.9302336238318456 -1.9102200220047674
H -1.8964751276154097 -0.29813060000396874 0.9529033298198684
H -1.743443058129543 1.4302020216381715 -1.6005585364991675
H -3.694700314960973 1.060056068716736 0.4602164813650795
H 0.16229149736838042 -1.327874761036894 -0.18588541806014863
H 0.08224606186185225 -0.027819708565356836 -1.4308286798581724
H 0.7793004171660952 1.6452814811895453 0.24962727982712113
H 0.8333654854137331 0.3328531578683522 1.5131191239562019
H 2.109358260730637 -1.0795120868994552 0.045392195937230456
H 2.091021108130007 0.20315710330970307 -1.2145265668262524
H 3.4904791010580336 1.597481809787934 0.13969126170485793
H 4.199556816656473 -1.2347421951233595 0.19435175358278178
H 3.958395279823249 0.5554891830586403 -1.9255431624489894
H 4.649657798539588 -0.9996115469682456 -1.940425685667007
H 6.356968712817127 0.68572024240267 0.1572751964845392
H 6.118240111207727 -0.7875115498531908 1.0153318698051874
H -1.3025648711597897 1.975368158837502 1.262775368729231
H -2.1764897229436557 4.359398148496015 0.43651660208526627
H -3.3738506111463185 3.209635011711524 -0.36585774843980107
H -3.1647963074944054 3.128919569157495 1.419642669387717
H -1.370423820228187 -2.6299124516814603 0.020561935213933867
H -2.4128012893625614 -4.193015593172915 -0.9771750763638815
H -3.6180697628011322 -1.2679693937151129 1.0191408617453848
H -3.0004972651753072 -2.9220147065993727 1.5473198811352395
H -4.315896496224171 -2.7496513867866215 0.31316420990046817