41
arg_c37
N -1.6195963483528155 -0.8505319715201473 -1.0401844754422385
C -1.2951809689742748 0.3372448818694484 -0.23875122874013
C -2.5225743206082316 1.1858675251450552 -0.1308535895586719
O -2.928683984076285 1.4557695216189557 -1.5033289003517032
C -0.11351379692310885 1.0427703744166852 -0.7327174839318488
C 1.12085165581031 0.14411942617503853 -0.7858081464423454
C 1.490803061418116 -0.44727618094799454 0.5262502037496629
N 2.6605909615252794 -1.2905521022990938 0.4472161453604943
C 3.8652899990211664 -0.5770234660757114 0.17781043412799302
N 4.95945419299672 -1.511197931554041 0.07751382146291008
N 4.214414854477283 0.42253664727987855 1.1285781533512156
N -2.5201308722405913 2.378707639933574 0.5802643693414052
C -1.827139299204619 3.5233399470860696 0.19811172303846938
C -2.602908744210102 -1.6670143345694857 -0.4116125596005832
O -2.64001307722731 -1.5008765791385281 0.9963406755330403
C -2.240545022489186 -3.157047505474615 -0.5746414556481803
H -0.7353825007437854 -1.4269495037088695 -1.0928482972465796
H -1.1011401281000044 -0.06918270913072985 0.79164256091931
H -3.407779876501793 0.5764771121107635 0.22848454730046247
H -2.219903425264341 1.9520868572264003 -1.9423333114444639
H 0.1655975674238212 1.8249277474621028 0.01892560366747556
H -0.2319964887786848 1.5274920336653017 -1.7066042138329498
H 1.9613092093912916 0.8399463584638758 -1.0726952721098169
H 1.0549345592806492 -0.578582079024838 -1.6248789051182297
H 1.517211897447483 0.3258474890139528 1.2843791588914435
H 0.6524571685237378 -1.1473890069742547 0.8264022665523645
H 2.7178894757289225 -2.038050180209135 1.1337539660201594
H 3.792839424965346 -0.05870266046872183 -0.8282181768541432
H 5.415134278905848 -1.4878927521494072 -0.8589574106562372
H 5.681121285905288 -1.317520685431042 0.7953090105732362
H 4.066158292815114 1.393789717725079 0.893638833769125
H 4.343333528371039 0.14324825775699004 2.095063113911894
H -2.8261405289345762 2.3372693880018796 1.580077409573597
H -1.246173533123728 3.9024071180684623 1.0807296372892121
H -1.1753471128785824 3.4404445655732667 -0.6609413000755135
H -2.579849432037794 4.3813174184886305 0.0258486515722373
H -3.6207012213476655 -1.5591401644956537 -0.8160692851566368
H -3.539172830282515 -1.8741271187918724 1.272999509985347
H -3.1469025561388326 -3.728125742825931 -0.244394821727825
H -1.392756986008133 -3.453270065046473 0.03386721730419883
H -2.145858359560566 -3.395157287244841 -1.66902344596045