41
arg_c3
N -1.9613379947446496 0.7649676974614907 -1.1658683401503427
C -1.451563906184781 -0.3207377157293887 -0.4985425910904829
C -2.25755137073809 -0.9819600100537098 0.5671539854286627
O -1.461901914472771 -2.050146838770029 1.0538586513236188
C -0.04661379890758496 -0.11129258010922216 -0.0024768117836946185
C 0.920173415137949 0.15126689916832994 -1.1332121422367323
C 2.3220032051309225 0.37251190838937637 -0.6560561766716891
N 2.8637095666733017 -0.7602989173065511 0.07379280694772289
C 4.2436049057127105 -0.5256186442282867 0.4625730230306358
N 4.423114110246553 0.6429642505339603 1.283270556483081
N 5.132113992695215 -0.5227604842415452 -0.6682225931029412
N -3.4486963259125933 -1.6488520396052366 0.023048654860824642
C -4.182570441566328 -2.3179396144441236 1.071407517303351
C -2.3241036905243853 1.970916497847154 -0.6025079766476775
O -3.390194939107234 1.9215242925885179 0.2990620683384722
C -1.2556105186630242 2.801863888503016 0.05452470619536269
H -1.8803454842675742 0.7029887792496019 -2.1951997046265626
H -1.3198758885117199 -1.1557245931511364 -1.2929381284555306
H -2.5171052596225967 -0.3753240429484551 1.4292531813034164
H -1.2819673982909077 -2.5984832017656103 0.2336421765678073
H 0.3311281513359151 -1.0578611260781 0.4841209704712984
H 0.06429390542442692 0.6841375891148681 0.7466210122340646
H 0.9477832296857579 -0.7320909202133509 -1.834567741679116
H 0.5981205974136712 0.996168090947685 -1.7343541043091009
H 2.9613292417310624 0.590605156968812 -1.5251459277978594
H 2.3470350637310555 1.3077495266923458 -0.03054976616791952
H 2.2830470564419163 -0.9813269955551551 0.919277673789214
H 4.527309253204184 -1.432566615499352 1.0767752113884548
H 4.718670327440977 1.4976034595655001 0.7460028532248106
H 5.0524843540074516 0.46783944665513444 2.099991032597939
H 5.593558949695785 0.387112775003896 -0.844040268301335
H 5.792360364448963 -1.3146574545942065 -0.6869367787896834
H -3.2445214971561316 -2.2447022599727706 -0.7809088774763479
H -5.035373611355607 -2.833621542039575 0.5996619870260269
H -4.586991180482061 -1.5812747614581448 1.7907398528217175
H -3.527289169120082 -3.0671234539985814 1.5611688466512839
H -2.7209113846216115 2.6302454942110747 -1.436933182784618
H -4.173620616047005 1.4666045316506204 -0.0682957168640928
H -1.2449596489328238 2.6126809843349696 1.1669540528963942
H -0.27279979816926825 2.7388079112984056 -0.4049650610777516
H -1.5359338527586746 3.9058046315780177 0.010441351205251526