41

 N   -1.924543069305   -1.370602417169    0.784674607106
 C   -1.379833200364   -0.016906685196    0.699603055882
 C   -2.381849057523    0.941256502080    0.033533101934
 O   -3.683028992336    0.757018557662    0.498238970530
 C    0.034161865265    0.073808890302    0.058421571148
 C    1.074655560337    0.747278087803    0.961827386489
 C    2.444864957475    0.927056087561    0.310947903609
 N    3.051697110632   -0.357049989773   -0.015513608801
 C    4.450305636396   -0.336190495656   -0.366389202475
 N    5.201416711058    0.015704264326    0.824996195335
 N    4.761905126158    0.553377116252   -1.468228899658
 N   -1.983497025800    2.309457570561    0.278739929943
 C   -2.744478147618    3.291182019876   -0.473068567782
 C   -2.490306379748   -1.993076038647   -0.368010812688
 O   -1.543492352671   -2.046273305444   -1.425164329995
 C   -2.962103273141   -3.395250936814   -0.011767231696
 H   -1.242945682343   -1.974220402377    1.201038598556
 H   -1.296523781488    0.316821513382    1.731286534981
 H   -2.439182149995    0.722913958876   -1.030965805927
 H   -3.679125208465    0.843323115763    1.443383018581
 H    0.361214893019   -0.929622087204   -0.174236805781
 H   -0.014483865150    0.590286360544   -0.899105574983
 H    0.719951932927    1.725835845016    1.279535566840
 H    1.196445490763    0.157130326175    1.866649144615
 H    3.099158707754    1.435579405762    1.006220906625
 H    2.346909738145    1.567095485551   -0.568116899839
 H    2.556094028310   -0.777900465116   -0.775889383620
 H    4.681293015321   -1.339161077813   -0.719657564937
 H    4.958328831109   -0.601119556344    1.576264312694
 H    6.186620695829   -0.063949328303    0.661987972028
 H    4.799965478557    1.502014487020   -1.145350153036
 H    5.658911333261    0.337432695633   -1.859437189255
 H   -1.009175244517    2.429337084684    0.094069278015
 H   -3.785139287028    3.240032002276   -0.186317525569
 H   -2.684992217479    3.150715786940   -1.554474242281
 H   -2.375869340770    4.282733380452   -0.237076645190
 H   -3.336628902502   -1.400816810491   -0.686852576056
 H   -1.968748475091   -2.349693304702   -2.215987430562
 H   -3.700669082924   -3.357866079553    0.779773044789
 H   -3.407872813385   -3.880293530754   -0.875532768519
 H   -2.123874766144   -4.003627696058    0.314740616249
