41
arg_c39
N -1.9057981260124197 1.2318513284312658 0.24528187416165398
C -1.296959751094674 -0.033649067221104334 -0.13648337648753858
C -1.8701915814053658 -1.1760926294659075 0.6497405538465558
O -1.6467808876782715 -1.0184805427198085 2.0355731981222815
C 0.20021130924790642 0.0045988517016623525 0.1942035602140051
C 0.8924849056651153 1.1325892536111892 -0.5266561884968323
C 2.337471040315054 1.205836178014393 -0.20426965331810507
N 3.091646271079395 0.043355812298666765 -0.560698688136184
C 4.503499475329142 0.2156985486244626 -0.2570296676794437
N 4.800930891942011 0.4623303207843841 1.1029272248515054
N 5.163148614281549 -1.0063126148137818 -0.6586113221282702
N -1.231217446978761 -2.4053297204742026 0.24733943795296137
C -2.081385889701195 -3.532471167824051 0.6736547371823962
C -3.332408859310491 1.265370300973019 0.0022811006664076694
O -3.7394245772494927 0.347247758286968 -0.9833795163777215
C -3.6482165731173035 2.646483591469898 -0.5732067074034584
H -1.4893540045556546 2.0188715226292233 -0.31748368041401465
H -1.4287319193723516 -0.19635704917568136 -1.1906197760924837
H -2.9590851420930457 -1.321580570183513 0.47039236996626393
H -1.6624718006062222 -1.900513405454463 2.4683710257693208
H 0.6804311068183179 -0.9615347274918848 -0.045046963739722716
H 0.368201909075913 0.19328743882062788 1.282713238696029
H 0.447240993831141 2.095148947712147 -0.10824634719046328
H 0.6601722847577498 1.1717607190462462 -1.615954711105612
H 2.7745920190565143 2.136544043003236 -0.634635262574755
H 2.4105716600296443 1.3168409456618968 0.9109690271558982
H 2.975258339877358 -0.24198539171978503 -1.5423866655584182
H 4.954371509779893 1.0406483606213845 -0.8624915095697163
H 5.056347728918716 1.4111633994757853 1.3730509323527704
H 4.256622457464362 -0.07889445663811628 1.7918855353636052
H 4.798069473569421 -1.743039785711139 -0.0006941138634113529
H 4.813186329961228 -1.2561049286147619 -1.6014957686910887
H -1.2162728383624055 -2.421810020094215 -0.8075729821120479
H -1.5486918270855365 -4.198484163039156 1.3427183778081966
H -2.458393942965139 -4.104166869556844 -0.21732569614822903
H -2.97491889524986 -3.145416722217679 1.1875181276993507
H -3.9303751220516383 1.185242365334523 0.917873156169314
H -3.526326070503866 0.712119923470958 -1.8842146897185894
H -2.890138946320312 3.396135865003021 -0.2287007711493971
H -4.6682589098448775 2.934508620923535 -0.25979470906186614
H -3.679055209440782 2.5745897365175527 -1.6794947109608844