41
arg_c11
N 1.788395948816131 -0.9793226358266942 -0.5710639581047409
C 0.9800412160319611 0.001309172722521893 -0.026811557629335625
C 1.8209013349359324 0.8825748323460054 0.9567290759051924
O 1.0748302037719102 1.8902562411340347 1.4930217574290465
C -0.24314344163922808 -0.33506696670520486 0.7231325412639252
C -1.2597134320156775 -1.1252404942704388 -0.0697351724785799
C -1.7839637250970701 -0.3915239343644493 -1.2755999725716596
N -2.4495511008040096 0.8592343833708233 -0.974653794843908
C -3.6877832535018857 0.6347362466149097 -0.24510740373088316
N -4.659276248980617 -0.12269358311065193 -0.986496371386438
N -4.275798751713283 1.8686194407484555 0.19835955889980478
N 3.026859665931219 1.3381043472119551 0.3981598681625956
C 3.256824096109405 2.7219665635502763 0.7377052882537543
C 2.4634240119563855 -1.9768557549966426 0.10332576816252488
O 3.5447752047347394 -1.520552419684582 0.8988398442206049
C 1.6653761023481881 -3.0130892894321866 0.8486591127130504
H 2.2442718451107844 -0.6543715198152773 -1.4514382459190376
H 0.7033385646622594 0.7177347953876522 -0.8310135730411148
H 2.110433548850152 0.1821126669834868 1.8112445932561851
H 0.7601377375030488 2.4881404220318295 0.7813014331547197
H -0.1526711185907894 -0.736438588107751 1.7250888015716617
H -0.8182146063332143 0.6525671549101114 0.9188828553301472
H -0.6832673649307808 -1.999204558434776 -0.502956660350016
H -2.0752402012438975 -1.4768567534591877 0.6021573311300701
H -2.4812843464746837 -1.0517304151227866 -1.8397272557842135
H -0.9322598741062501 -0.20341943107280444 -1.9741592589931993
H -2.7637967704127395 1.2354178686896438 -1.9172983497921816
H -3.410972470315152 0.06107584127369926 0.685735724735155
H -5.544858600740031 0.4559393623767027 -1.05546574104032
H -4.960658448298595 -0.9943509608460019 -0.4789228750251216
H -3.561072760534127 2.366923484767009 0.7691876545074092
H -4.531931475433516 2.471760189322164 -0.6532879480097057
H 3.113689233707028 1.2425075174226126 -0.6341504059261891
H 2.5595456593496473 3.0446232338765595 1.5478924965013567
H 2.9907520335204794 3.3685883193355948 -0.13492178157433127
H 4.31994322979464 2.9072761631863315 1.0341694146338427
H 3.005354651746991 -2.6029280800699524 -0.6837709522606858
H 4.2538339665681155 -2.2177789290357603 0.962453066209006
H 1.0822591808201087 -2.673180981788863 1.6929191398633312
H 1.0815450288744184 -3.5775336212084716 0.08372346112576178
H 2.428925526022295 -3.7393293299098103 1.2551563844939466