41
arg_c29
N -2.3233319780243304 -0.5558864769201969 -0.5836204197448732
C -1.5194620689511167 -0.3376163345803393 0.5915842565999846
C -1.9776407949995491 0.8750095247209868 1.337165362623374
O -1.1349136029024633 0.9828512092065246 2.4828022561176386
C -0.044462129320559665 -0.366569950940811 0.3372434550484211
C 0.463595393382595 0.6482577702659085 -0.6228417017490923
C 1.9850489679267043 0.4185956118410792 -0.7079487963690412
N 2.60500506926541 0.5803846052279521 0.5629066593086259
C 4.017035322925172 0.39305926538650665 0.6017140976936315
N 4.731389634353798 1.272037988031611 -0.311088965967886
N 4.3612235579852925 -0.9882241960521572 0.4081239730287063
N -1.9358036282824567 2.1151760212989172 0.6981482045380969
C -2.7059090742862146 2.3952002255626965 -0.44013769813915515
C -2.1249399667556026 -1.8046172721974363 -1.2453943972663557
O -0.907208611739713 -1.9484064431336652 -1.892862996898355
C -2.4818657239674806 -2.9942726265128217 -0.37335007964849287
H -3.3267733476939934 -0.5954889161001147 -0.21972317083313964
H -1.733724333547843 -1.215653780653731 1.2699547378818596
H -3.002143002645004 0.6632909279960062 1.7154585355162961
H -1.6826455610398388 1.1560388769271486 3.2684241865134047
H 0.5106655770402018 -0.19702916633538986 1.3028213869293022
H 0.29848804068536905 -1.363450971935726 0.0013500507051956512
H 0.35177813997722285 1.6602722700327959 -0.17786674378221318
H 0.10440190329118948 0.5805647319660985 -1.6504118829380825
H 2.4338592941196144 1.1537934400911491 -1.427069232491496
H 2.1803962314586247 -0.5779506948806259 -1.1440313898757968
H 2.283986399710439 1.4597806150373327 1.032319401128581
H 4.378396257756037 0.6920651809760497 1.618671154497427
H 4.71214977775845 0.9041359281507783 -1.2855334035643036
H 5.717425461956121 1.3234802165983892 0.030125921180455168
H 4.507485004002654 -1.4228862723837319 1.3644738024897014
H 3.556413590783863 -1.4863509334791276 -0.009747024183124094
H -1.984857036753995 2.899003142791911 1.3706788838793378
H -2.995970272748216 1.5969863694618396 -1.1102608856791403
H -2.0871907421133775 3.098332382779047 -1.085226208733264
H -3.6074577637536724 3.044946113439427 -0.20271161355918488
H -2.8911067507686066 -1.8432892506629694 -2.0807402759499602
H -0.9765318022683097 -2.322572452728013 -2.7891722447931735
H -3.433707911938842 -2.7613811197675417 0.10965225945580502
H -2.6480099198552027 -3.8524996990625042 -1.0623611780967497
H -1.6730876000228565 -3.2791158594634684 0.3184817251269374