41

 N   -0.849945312251    1.441479305300    0.310548557206
 C   -1.440156107450    0.628002301973   -0.745340174516
 C   -2.103837257448   -0.621982489762   -0.130237237944
 O   -1.254826424757   -1.299054441224    0.739355185579
 C   -0.388979530104    0.332997318696   -1.832662989888
 C    0.767398997043   -0.633540986529   -1.537853403971
 C    1.820278045650   -0.138693547996   -0.549131367166
 N    2.904594236832   -1.114293850251   -0.477448286423
 C    4.107198402466   -0.711959750355    0.196982094606
 N    4.796081813730    0.254120250014   -0.632212468780
 N    3.864469659507   -0.093304709921    1.492590405683
 N   -2.501133062949   -1.546258674978   -1.160970412914
 C   -3.293887942641   -2.662102172005   -0.680090633421
 C   -1.636560404585    2.146696150452    1.278212405888
 O   -1.978041135272    1.220926793724    2.288807511515
 C   -2.890864712861    2.851357953657    0.760390076562
 H   -0.108615269739    2.011368566405   -0.032268132479
 H   -2.238613791822    1.175823735814   -1.254185826683
 H   -2.972991020425   -0.287122397378    0.441379880057
 H   -1.058116638367   -0.702515641595    1.452426155699
 H   -0.923333225160   -0.059930548083   -2.689807115177
 H    0.017099904522    1.292371925967   -2.157007336263
 H    1.271532594238   -0.827172661145   -2.481363785868
 H    0.360027227747   -1.577412971847   -1.200028656689
 H    2.247723880811    0.796007537665   -0.890807230007
 H    1.376840323947    0.045837672620    0.420606774584
 H    2.566876147011   -1.974582123060   -0.092893587856
 H    4.693281891606   -1.629936131451    0.308935273575
 H    5.700096582250    0.473757540144   -0.259497346935
 H    4.927151090871   -0.141438574841   -1.542463551001
 H    4.712230170559    0.272010690972    1.883707478480
 H    3.511440158656   -0.774511098140    2.137803128073
 H   -3.007503385199   -1.052933363370   -1.869650265043
 H   -2.694524023096   -3.268283031915   -0.016801345175
 H   -4.193842775468   -2.356055906883   -0.140591174484
 H   -3.593131133127   -3.273544667047   -1.523717051881
 H   -0.976083016675    2.896822615201    1.702874104591
 H   -2.579897111942    1.615022446236    2.905313713207
 H   -2.638078076606    3.539003358811   -0.039909598446
 H   -3.624691126847    2.144538468663    0.392444501281
 H   -3.354519658722    3.428268612988    1.556786690513
