31
asp_c27
N -0.2032575444809606 -0.9508064112161119 -1.0270160204200638
C 0.314941854935412 0.20520419635794948 -0.2732195584530181
C 0.896352315942592 -0.21201982832224367 1.004803186304391
N 2.054430158388055 -1.0571918382288379 0.8171323516955119
O 1.3932896903890855 0.9215143116216594 1.6652341505843622
C -0.6066112253622004 1.3490895809121657 -0.34706799231854774
C -0.32556139382076904 2.6130004055236014 0.3471025691103567
O -1.425461886079658 3.4801327058614486 0.003012309322473408
O -0.4308637969584063 2.5945530944849025 1.7423113297678654
C -1.2755579555696053 -1.6153845042187274 -0.3559446219361243
O -0.7461010878116067 -2.6484366652484943 0.4176528078165646
C -2.269319809463587 -2.252130154206637 -1.2991215181237505
C 3.1761070150761648 -0.4716269164668169 0.1905603910108567
H -0.4385390342863472 -0.6774136326200486 -2.0080593407702247
H 1.2041295966916414 0.5005702422083023 -0.9291772875722754
H 0.21002282916325965 -0.7895387677988022 1.6690910300167554
H 1.8836263183409587 -2.0201093171176496 0.5654200265558099
H 1.8820068633915168 1.413935298864194 0.9471769785020224
H -0.7801281858090111 1.6560607225508595 -1.4431001805610681
H -1.6539674456838602 1.024594067463015 -0.0477106434778751
H 0.5475007120044173 3.18744032503994 0.06314447122006461
H -1.8851455309288383 3.1664406926701316 -0.8018446677252411
H -1.378177648094114 2.5785052733626084 2.009339602539398
H -1.860595883319122 -0.9652542176049415 0.30968609757127125
H -1.202102234879009 -2.6936597152091584 1.3021607016481163
H -2.537702362207039 -3.2976627124795748 -0.971771893475754
H -1.9296102055158204 -2.2822206303121395 -2.353823262254733
H -3.261697898633737 -1.7252996143254138 -1.3067541681002863
H 3.0233361005077115 -0.18578773535953375 -0.8567606953015352
H 3.6124761776821406 0.4021811667948007 0.7188471009405987
H 4.012181496390591 -1.2486794229802525 0.24869674588409088