31
asp_c17
N -1.314948879705924 0.16211849736806083 -0.15909527218573963
C -0.10758341873588714 0.25695027667399956 -0.8599301066962725
C 1.0519224435190209 -0.5406851177200097 -0.4664664347842407
N 1.5084866916280582 -0.4320168658341976 0.9072377363942602
O 0.7928060893825948 -1.918934753493482 -0.6778914143305547
C 0.14025810696144478 1.6266520982037462 -1.4416018589513113
C 0.19387858457119175 2.772227681559595 -0.5004866721031623
O -1.005517543542312 2.9341245612478843 0.23277265104424583
O 1.2979985392803846 2.896374424521291 0.29241920527055937
C -2.1099321104078577 -0.9779935852577142 -0.04704827721449305
O -3.3997313509842484 -0.6007691984189235 0.4225464663962419
C -1.6612234402144874 -2.157673910617976 0.71485081017252
C 2.600538871299709 -1.420313638521588 1.0276587252681137
H -1.332949687633376 0.7306237914300157 0.7359936681655034
H -0.41087215907222197 -0.3130449897587172 -1.890029718034442
H 1.9575943140451753 -0.33333425852531157 -1.0848236509817808
H 1.990089850605768 0.4716495500973186 1.0621989678264443
H 1.114582609150782 -2.489358545369027 0.035422780024849006
H -0.686866180105089 1.8813180882906524 -2.175690219272892
H 1.0530613348174238 1.6524514710266058 -2.0777394333798656
H 0.19373883493600416 3.7394546093064065 -1.1316275352668823
H -0.8335935463837616 3.189924587970383 1.1534143665399381
H 1.129370120440622 2.703275878373408 1.2497476933862173
H -2.3044073319881404 -1.3321075089889924 -1.1277645458564192
H -3.8115273771366702 0.0024517265911412137 -0.24902320365170005
H -1.4871467751799372 -3.017054604192864 0.042889676974933996
H -2.5282798780481506 -2.5253928644516233 1.378175910533979
H -0.8103813001363869 -2.0213771917590706 1.3974909575780776
H 2.2924888183013983 -2.2484950552145055 1.6826087657110784
H 3.5072039103133514 -0.959160223250106 1.5212445154954914
H 2.980941860021446 -1.7318849312865172 0.03254544592729085