31
asp_c9
N 1.0392816666877913 -0.8413445461807808 -0.8544485662594543
C -0.2247612503566915 -0.20978012868274498 -0.8867405032290495
C -0.2457052626400692 1.2259294938922523 -0.47737704347267124
N 0.18254619721075738 1.5057718249380831 0.853178522765461
O 0.6269778030522694 1.9054484927658593 -1.3615895952559378
C -1.2650793309869321 -1.0401138401479135 -0.1679290464199187
C -2.6408189237839412 -0.41392290172579876 -0.17711525357628094
O -3.4675130136961463 -1.3206729792885281 0.5301776861722373
O -3.1628236440638617 -0.3270174874007875 -1.4549789988501678
C 1.7234997684780642 -0.9821063141145583 0.3705762591749391
O 1.1934071092987526 -2.0392883770036154 1.155423808133375
C 3.1377344024794347 -1.4975146844063039 0.018580983117586367
C 0.07127484872630505 2.923763718179926 1.1106027144996042
H 1.6618967262341189 -0.3981680389816674 -1.5828381334777282
H -0.5611593750729569 -0.24665656675976316 -1.9726318255855277
H -1.2864841774274958 1.6342451102106061 -0.6659169888974695
H -0.3030809587062587 0.9874381616819833 1.5953494679463813
H 0.3213215935675437 1.8124606490761763 -2.301754282817567
H -0.9631622651494919 -1.2800910993447556 0.8742479211493062
H -1.339136987823531 -2.0022414075525026 -0.7120496786955376
H -2.6993727276304487 0.5739641992136545 0.2927364441427763
H -3.0259776582111786 -1.5309809706068325 1.4163888625000025
H -2.9696636926233277 -1.1925803403506656 -1.9277444851877517
H 1.872424926589458 -0.08942594618757763 0.9822391583568767
H 1.7640687600786242 -2.155489019191524 1.948042259101981
H 3.6005838624672792 -1.9270196276981355 0.9501851715160864
H 3.745133631096457 -0.657721890061043 -0.36833715176417237
H 3.026565180593269 -2.301141412839726 -0.7204131297593802
H -0.3638562827960669 3.447531175772481 0.22996351670202966
H -0.5497565400736795 3.1271480666750167 2.023913539511411
H 1.1016356144817923 3.3095766861190477 1.2802583684585984