31
asp_c26
N 1.0453814643708728 -0.478193063215763 -0.9282545772954905
C 0.1578482928254818 -0.2649650244762804 0.17040697753079484
C -1.1779444346269738 -0.8255377921245428 -0.20140586255144177
N -2.13604521996369 -0.832221687331753 0.9025996266557037
O -1.7842892066841018 -0.30560814330799324 -1.302185342366231
C 0.17985598210969778 1.0700176422247236 0.7958823485287602
C -0.14728321807945116 2.2521105282512575 -0.021193968501051888
O -1.4340946180785519 2.1591720495567492 -0.5332590533273072
O -0.1643308450436017 3.3761032190986846 0.8435582901231253
C 2.4321599678292376 -0.34027022771857246 -0.6779991435952697
O 2.8060861734363973 0.9599951673025534 -0.4037245832922538
C 2.984706692587554 -1.3250638550687759 0.32273155186776603
C -3.324972284648544 -1.4997011746534779 0.3439294476252248
H 0.8664787672331586 -1.452706734057023 -1.2916804238770658
H 0.525531993288147 -0.979447489472981 0.9813316334254423
H -0.9994492328440329 -1.9197425442142149 -0.4241110345780709
H -1.7812642421585518 -1.3767951461611987 1.723597193915909
H -1.822236293264824 -0.8956971367807237 -2.0837694972864864
H 1.1871890181674363 1.223230045414234 1.2501626599630664
H -0.5150904038520263 1.0574590592770494 1.6827566806546597
H 0.5974467254230889 2.5260526546111057 -0.7940250089230102
H -2.0841099942025156 2.598995140597391 0.07615568863920165
H -0.21508647361600602 4.1988596911285505 0.2923999863856623
H 2.952300587627508 -0.6105934990047015 -1.6485335294872285
H 3.123213966042293 1.4232879776929628 -1.2129904952576769
H 4.094485508199623 -1.286522705477652 0.20439395005741015
H 2.779420957696924 -1.0678627422676423 1.3727531035136145
H 2.638804175948762 -2.3250075272266644 0.06562164144250857
H -4.197900597320689 -1.3550890694243796 0.9783453866040495
H -3.53468783774982 -1.1192808092184565 -0.6766672913715589
H -3.052125370652846 -2.5849768039525007 0.193173644777375