31

 N   -0.886002145324    0.713854899500   -0.239422256104
 C    0.109952825065   -0.254787335019    0.237890088507
 C    1.559419213354    0.227472810217    0.030762360518
 N    2.501293018277   -0.807382708147    0.361992950594
 O    1.776482555519    0.600810311683   -1.298966360356
 C   -0.164725559883   -1.601936489637   -0.443147837477
 C   -1.481245325011   -2.256486381561   -0.042136712446
 O   -1.460953980837   -2.423081138868    1.346896970434
 O   -2.610628150628   -1.561030338715   -0.440025936167
 C   -0.909838343510    2.030809395480    0.316759719612
 O    0.128695076032    2.807383552546   -0.264892028823
 C   -2.254660144593    2.695579945873    0.062743992657
 C    3.883804260739   -0.371230248369    0.379206035591
 H   -0.848831543466    0.775297244574   -1.239955633108
 H   -0.053196920110   -0.372503239516    1.303948273995
 H    1.712476982468    1.106545512241    0.658618740212
 H    2.256172123337   -1.215560311725    1.242766138098
 H    1.520434507571    1.510399948069   -1.383099573615
 H    0.633839253252   -2.288511164415   -0.202198329987
 H   -0.152076573347   -1.476069080217   -1.521186024653
 H   -1.556057701599   -3.226070924062   -0.522060626324
 H   -2.311454443168   -2.747193518654    1.613036637219
 H   -2.463533130950   -0.638782916802   -0.251345131443
 H   -0.735763325918    1.945411600738    1.384722727509
 H    0.106128500538    3.693707416493    0.070881616226
 H   -2.269520193458    3.708098693619    0.457134920592
 H   -2.451102141929    2.745295027642   -1.003171676439
 H   -3.049567325039    2.134161654971    0.538407015501
 H    4.175480833827   -0.068981819575   -0.616212815309
 H    4.513631527936   -1.199965461393    0.680638004163
 H    4.068649798727    0.465136201033    1.058475985990
