31
asp_c12
N 0.8084635394659317 -0.7758045520636997 -0.676417009978059
C 0.06532152330451138 0.1935856823116357 0.0717055049579586
C -1.2846218314582187 -0.34532006527700115 0.4451389321933149
N -1.1805159389187014 -1.4535059948372806 1.3883219661776531
O -2.027160887112571 -0.6462735105162379 -0.6650773081388738
C -0.10833501076241446 1.4756964723387251 -0.6980466225378645
C -0.9037398643456941 2.5040129632607053 0.04251814329050671
O -0.3746090720841836 2.851071290732903 1.2790702994120928
O -1.0115612402867409 3.687347617809976 -0.746818911799352
C 2.185396610699485 -0.5284676435837715 -0.8650699291987285
O 2.7599170936671555 -1.419910079860062 -1.7520750476613944
C 2.915818618402839 -0.6215375785717318 0.46726942679319794
C -2.218588973733958 -2.3968215578058554 1.0587854928854676
H 0.5828676680464482 -1.7788997931131596 -0.4507160096595493
H 0.6649236230658409 0.40853708838498703 0.9836353907974913
H -1.8207287376048578 0.4653093416447415 1.0241405688338152
H -0.2524208888601922 -1.8382175638561478 1.507691486961226
H -1.4522292002094657 -1.115921129653004 -1.3267972398563075
H 0.8422615135375345 1.928583327760489 -1.047492376938202
H -0.700140100249665 1.276860472620692 -1.6524524476814302
H -1.9427226322857427 2.1560193656463182 0.11777786078366878
H 0.2963917561605229 3.586718412916632 1.1531715516283014
H -1.920419612013407 3.8466625954209466 -1.0566560429861644
H 2.293983018858601 0.5367186002894528 -1.1903222075259094
H 2.044779716892616 -1.9839480180719438 -2.1440286708815304
H 4.0246891173506 -0.7782383444870848 0.28840990597756766
H 2.7287923656816617 0.27493210322353995 1.0858215344429782
H 2.5552258109065225 -1.5102654893032392 1.054525944933094
H -3.219885340120306 -2.092882324634909 1.4589054147115017
H -1.9530398208065678 -3.424729877538385 1.3989056490124452
H -2.3981128251875488 -2.4813118111882577 -0.04663667034033054