31
asp_c20
N 1.1597409673827965 0.18071769455044553 -0.6246502731631173
C -0.17750966940809157 -0.2894312588338757 -0.39421086941840233
C -0.842871154193447 0.5738997794936037 0.595897371178935
N -0.7204322608603423 1.9831908353265388 0.35082514798216485
O -2.1554767246517663 0.295408433562791 0.8978525987751423
C -0.14695026370014674 -1.728922416983007 -0.1293079612924519
C -1.4019205083085877 -2.4749955673995845 0.13009981741265822
O -2.15530509717702 -2.134287700117772 1.2053826819090094
O -2.134995200208409 -2.5426293289911857 -1.0624751642751384
C 2.0866925275288777 0.24682047095921447 0.3996615091049799
O 2.4446358047773797 -0.8712900323586303 1.0940404837534825
C 3.4081971116712313 0.7580234406113955 -0.24050203645346743
C -1.294136089143509 2.4852827335638508 -0.8385314688545208
H 1.373753887016581 0.5321826648433026 -1.5559379646462568
H -0.7046772755163799 -0.15036415094739666 -1.3870017143197266
H -0.287663720803749 0.4103768800125322 1.5797563338958522
H -1.0874083458043968 2.527355136155359 1.1604245184261335
H -2.7857250995642486 1.0324542714368998 0.7330572458188945
H 0.6012581669124041 -2.017374374985771 0.6743707622220669
H 0.29043216726743154 -2.24312239618242 -1.056713327355814
H -1.083648331632435 -3.5541124235978683 0.29837311721932125
H -3.1164561982461656 -2.3130025560058525 1.0024022826962369
H -2.5817097436683745 -1.6987632758695435 -1.2229583616660669
H 1.8812929490687278 1.052355277910603 1.1749392392192237
H 2.8166462683981455 -0.6485617635204509 1.9830343569292879
H 3.7002232638955146 -0.083230424418733 -0.9307773659538214
H 3.1805071874007482 1.6568164579824696 -0.8433358283714291
H 4.191353813749439 0.8887945865919639 0.50091693991431
H -2.3585523916263855 2.202417192707806 -0.9972542564145285
H -1.3248020217479888 3.6121842878120036 -0.7232329113658504
H -0.774494018807844 2.3118075266912794 -1.7741449029070706