31

 N    0.572211204650    0.537657318310    0.809255681784
 C   -0.208646890897   -0.114310544972   -0.220974728613
 C   -1.702760658941    0.266558220819   -0.154175942170
 N   -2.443148796570   -0.236722255865   -1.275577211135
 O   -2.262351128405   -0.050396832224    1.103121603134
 C    0.009525811146   -1.633426846329   -0.152433057502
 C    1.441735629782   -2.121685622942   -0.380185073264
 O    2.161284839319   -2.027654867266    0.790716974561
 O    2.123993749614   -1.401419919026   -1.366739799931
 C    0.769123471915    1.970621400454    0.786472060928
 O    1.647407061236    2.273479963212    1.832171702205
 C    1.324581693217    2.458335414955   -0.545350651343
 C   -3.793817106672    0.284757549455   -1.400599305368
 H    0.235346444011    0.278145886395    1.715867654829
 H    0.150095407840    0.217173696084   -1.183567284990
 H   -1.767718206232    1.344472781373   -0.199407868813
 H   -2.464600308672   -1.236779535938   -1.279829134016
 H   -2.312838756832   -0.990956833331    1.208753939527
 H   -0.307781781414   -2.031949135573    0.807469282023
 H   -0.604326344933   -2.109469899820   -0.913015439049
 H    1.394049388538   -3.166778442085   -0.691243592655
 H    3.081196128732   -2.127265974131    0.582642626184
 H    1.856068427631   -1.694819018686   -2.226703137528
 H   -0.132079223968    2.531504082054    1.022768649877
 H    2.367951283354    1.656922828116    1.777355902907
 H    2.177572277087    1.855515847875   -0.840504790257
 H    1.641425257733    3.488258513454   -0.431149904343
 H    0.586590087074    2.420834933214   -1.339821749699
 H   -3.750904378154    1.358434377560   -1.544126009372
 H   -4.260345762414   -0.146475820091   -2.278663365683
 H   -4.423287543946    0.085201743482   -0.536573437083
