31
asp_c29
N 0.5974991844213743 -0.40418986552385083 -0.8599902641716557
C -0.012594970491513093 0.0488305837197869 0.31139698098165663
C -1.4884314433480663 -0.3055695373966826 0.23980625130925207
N -1.628529859177863 -1.7087210894629543 0.014312247904234361
O -2.1921737560929175 0.04626933632267398 1.3758867845631795
C 0.28937396611499683 1.3791111005543804 0.8085733504271859
C 0.03487252845833997 2.5502529393570827 -0.10717273115694818
O 0.39448443439770847 3.7078323798190818 0.6491612218045567
O 0.9035079706593532 2.5196828318642837 -1.176782410150021
C 1.6866950156492078 -1.3115792218561386 -0.7301329511747472
O 1.3101810451609501 -2.2550511777809987 0.30545895154011
C 2.994024701741367 -0.6840297157206604 -0.2641995415964811
C -2.8952173284293834 -1.984496881783541 -0.6661348846067283
H 0.630645739011407 0.22266172636672343 -1.6573677224664503
H 0.35243864596000724 -0.7028266444226376 1.1344341259773543
H -1.9515399864030845 0.18912824903774228 -0.6574664692481808
H -1.5735524813228434 -2.251148072685382 0.8752609096372621
H -2.3122957111837397 -0.7133295466169894 1.9658861929786486
H 1.2692154221180367 1.5087372229940068 1.2776590860838395
H -0.4552980996952664 1.5874814758593296 1.6889094731519476
H -1.015315030126884 2.6586149987118404 -0.34877237860093446
H -0.38036899917632816 4.340097811263678 0.6951984833146518
H 1.3393918398623998 3.3986197687279134 -1.250673616880888
H 1.8588022934217274 -1.8703204287402933 -1.6439157356044058
H 1.8779633470260217 -2.0711632441091377 1.1002755518191865
H 3.55399047596577 -0.4605892500773882 -1.2024066274582328
H 2.886841990428983 0.24036527905145663 0.29376348878876624
H 3.543727508130317 -1.4605234254510802 0.30905303962501424
H -3.3270186842761893 -1.0441226368070677 -1.0536202399480439
H -2.7020251124826395 -2.689938079245867 -1.4710881253093493
H -3.5892946463212483 -2.480086885969413 0.04468755846628711