31
asp_c10
N -1.1841400975160803 -0.08028093499570374 -0.5580208079609759
C 0.09169506390425622 0.339491478002078 -0.26472957627695337
C 1.0700491238460343 -0.7804912440608245 -0.08446142451391642
N 2.437509878881892 -0.26081290696819387 0.07257383393389974
O 1.1032714387470688 -1.467868083722992 -1.3253007196683542
C 0.256428080312436 1.3655141227979624 0.817766614218387
C -0.4909807584314245 2.6575618341370144 0.4824705742418922
O -1.853017075786363 2.403852953199387 0.3383781343846927
O 0.010551322704681673 3.2195368903153776 -0.6948690059814597
C -2.0547832308451675 -0.798542873410548 0.2147964857286742
O -3.2714104377635267 -0.955425959889998 -0.5118549379192039
C -1.623409467924334 -2.197926567130777 0.5314982353155979
C 3.2793813762972146 -1.4269884376038942 0.24700251462565967
H -1.5575565172589168 0.24029234581943099 -1.4947531769434543
H 0.48056398224803587 0.8811645168161658 -1.2017758761148842
H 0.8646021438813352 -1.4666009351937623 0.7301479664247834
H 2.7046599625944734 0.2754130091850088 -0.7680245115917269
H 1.4725374942594327 -0.8331818378503495 -1.9995409126071817
H 1.3300495356141335 1.646636235671859 0.8383569774884888
H -0.034258080888165315 1.0751544637512611 1.8175451090223826
H -0.38314602813065674 3.3924130546352544 1.3045129926334493
H -2.101899975232779 2.383754865665036 -0.6085014506131965
H -0.6444338075290692 3.9051229313747706 -0.9752968808857839
H -2.2727862489125292 -0.3293862131500712 1.201959412386503
H -3.375373231362997 -0.13202959419678661 -1.0501963321845813
H -2.553211569597855 -2.8661911308450096 0.6717183949915739
H -0.9682978588240742 -2.6787499939048143 -0.19433255902555613
H -1.1418979668478413 -2.3073114616305275 1.5456377936467054
H 4.351212446798705 -1.2141816546279731 0.030954229870310216
H 3.1487413635677393 -1.7707898749934297 1.310508539435992
H 2.9093491391942874 -2.2191489971949285 -0.42416963606173996