31

 N    0.802935778021   -0.737733895464   -0.360491822138
 C   -0.472804688361   -0.037725962435   -0.207220975686
 C   -1.583734565628   -0.913894019813   -0.817169982782
 N   -1.869074281138   -2.049455060414    0.039166820199
 O   -1.195590173251   -1.377829480206   -2.065343034038
 C   -0.459309462941    1.351765760048   -0.849928027691
 C    0.535369343132    2.328394403812   -0.241073692275
 O    0.269225449216    2.414956511776    1.130387163057
 O    0.465533400470    3.580360019322   -0.834236774357
 C    1.476601012721   -1.147898743223    0.846610001664
 O    2.029918132978   -0.071390867205    1.563941446574
 C    2.621003684612   -2.088661130496    0.525582031914
 C   -2.775472809136   -1.783899404146    1.138775636137
 H    1.438827245458   -0.230634023578   -0.943326836288
 H   -0.691867074087    0.090959906268    0.845539730284
 H   -2.476861004299   -0.311852965335   -0.983201943627
 H   -2.247708782985   -2.768707350166   -0.544955414019
 H   -0.322538992538   -1.741075244274   -1.946293264528
 H   -0.252231193804    1.271163805207   -1.912463740661
 H   -1.449655645277    1.790572015404   -0.750178092786
 H    1.555979167026    2.006996135843   -0.393997614497
 H    0.839466680313    3.077194054935    1.501992272693
 H   -0.426028521051    3.902419526637   -0.782965651410
 H    0.741231673266   -1.659652121296    1.455834746681
 H    1.350070292452    0.553918077451    1.783907006431
 H    3.344443174447   -1.594228700672   -0.115882251378
 H    3.127633445791   -2.382322849889    1.436945872566
 H    2.251004176803   -2.972712594688    0.020886506292
 H   -2.999187245081   -2.713767273361    1.647339178404
 H   -2.314116278109   -1.123836428758    1.864493040051
 H   -3.718874919738   -1.328611772605    0.828370400892
