31
asp_c13
N -1.1001121263190472 0.20829502388171964 0.9812283255191033
C -0.07185488286113009 0.18833967711297547 -0.013591167576095225
C 0.7980610299004456 -1.0357272509665885 -0.015131984765519252
N 1.8751413760235467 -0.8195333459736908 -0.9503765334695533
O 0.11688132716199236 -2.204539833614241 -0.2543742294240624
C 0.8558919376170752 1.3730589373508457 0.11558042004850323
C 0.21307232860679307 2.70569590099301 -0.017433891910803075
O 1.2565502995498934 3.6582572554736905 0.1365444797225768
O -0.4738935259530555 2.9383783445623344 -1.1795696080652263
C -2.090268190833287 -0.8097755528549786 0.8913049489244219
O -3.0203422615710402 -0.5494826743155858 1.9278067533173755
C -2.900824489721152 -0.7451349789730056 -0.3899173828070355
C 3.0379136282357373 -1.5808394718240075 -0.5280809371085033
H -0.6850632329398916 0.2111207114664637 1.9379603585300234
H -0.5774948130237441 0.26428858386877363 -1.013417296727718
H 1.2941177935680541 -1.0520497004571079 1.0005460875275891
H 1.6253797726666812 -0.9335821943775973 -1.9462295261590445
H 0.6828639431846326 -2.9838312045055484 -0.43317388738137425
H 1.6823826759817329 1.2400000413893362 -0.6191618002769345
H 1.3608950464115563 1.3419985453335224 1.126584268773604
H -0.45980011872025645 2.914255296680177 0.8571499383287254
H 1.432952255375788 4.09323499007916 -0.7452954019300808
H -1.0124934147249238 2.1796546683703473 -1.440139447836338
H -1.7684914388960784 -1.8398009100950534 1.0199577639896154
H -2.730566551375953 -1.0895830025100077 2.7021654934546517
H -2.2849440575943225 -1.1161894786710356 -1.2202481167565944
H -3.3285940103015195 0.2633260973563105 -0.5490431964067238
H -3.7441111857260596 -1.451192288150743 -0.2548022324121263
H 3.9156408757834384 -0.9284338791927113 -0.42818580463757866
H 3.2574711722743745 -2.4268211056866793 -1.1933537026325878
H 2.843638838219714 -2.013387201750186 0.49469731014776747