31

 N    0.948145662818   -0.833904641660    0.537509157051
 C    0.320323883851   -0.096365339959   -0.550596912870
 C    0.433390122801    1.426182709321   -0.335761991522
 N   -0.064862930807    1.839562361606    0.932297276937
 O   -0.212175081083    2.128791644793   -1.377551911788
 C   -1.091617823437   -0.644223877942   -0.855496504134
 C   -2.038043949391   -0.917436587757    0.304314745360
 O   -2.593684428743    0.287307367936    0.745133118685
 O   -3.057087266576   -1.791313197074   -0.068290823180
 C    2.218861320830   -1.481825370004    0.307908239384
 O    2.061424828991   -2.499952596889   -0.637018385333
 C    3.368790440489   -0.611111684322   -0.183440670089
 C    0.199429734371    3.227000897609    1.266761678972
 H    0.949750831386   -0.289506465183    1.376436970970
 H    0.881670615419   -0.297969170715   -1.456791111333
 H    1.492429696135    1.671633029344   -0.355232429249
 H   -1.043570661394    1.640027043910    0.991064529020
 H    0.279007286174    2.037873607792   -2.182872177466
 H   -1.593354247232    0.004688982924   -1.566682688092
 H   -0.944178674282   -1.605955291779   -1.335190011263
 H   -1.520672220386   -1.415671621312    1.110210872684
 H   -3.185268525667    0.098151078991    1.462362984834
 H   -3.533458771535   -1.410669833057   -0.796190589649
 H    2.504284425404   -1.905775205361    1.268136392820
 H    1.333986115474   -3.042734457942   -0.361216085482
 H    3.563177379815    0.192147588102    0.519834406402
 H    4.266265102449   -1.211829977861   -0.278099268834
 H    3.153698209612   -0.182618151308   -1.155687528137
 H   -0.235870181408    3.934258251834    0.565842623895
 H   -0.194610105155    3.432288526678    2.255508435290
 H    1.271201127219    3.396371177953    1.298695487667
