31
asp_c4
N -0.947713112277122 -0.08875846761426665 -0.30991257460718225
C 0.4201257911723985 0.13416565857765683 -0.41837364313950837
C 1.2353543337235293 -0.04534351367864378 0.8286488805090276
N 1.2563640483511238 -1.4224834742082513 1.2388283268792624
O 2.570087594963336 0.25299915107588367 0.44647066395728036
C 0.6329607450301059 1.5340771604100933 -1.0046850537335263
C 0.07120554548751987 2.6143007130558487 -0.162857154614886
O -1.2896688596753432 2.5486651345902556 0.07037143355140268
O 0.2822698233837086 3.825200414255652 -0.8660070184343137
C -1.4991004321524732 -1.3203128244997187 0.047378825216085066
O -1.4372859023880284 -1.6442963741301537 1.3881035312213366
C -3.0024284697193293 -1.2530928597757054 -0.2849404459252654
C 1.8747753928681694 -2.3019568317967587 0.30453804293779785
H -1.4914321740073295 0.49933635576731233 -0.9635661667675837
H 0.8407395665296029 -0.5589698419686624 -1.171587779545474
H 1.008395654482086 0.62328458565542 1.6521293043759544
H 1.7484383613644663 -1.514087761051035 2.1564197501816134
H 2.709049707837395 0.09784821865961195 -0.5260468363065248
H 1.6998047352534373 1.7367987627859354 -1.1808991456046085
H 0.13954290797141905 1.5856371305486354 -1.9988853429576432
H 0.5905876770842061 2.7623655132348666 0.8055955678560417
H -1.491540279591525 2.8031168979802166 1.015329395120557
H 1.2152256579437772 3.8890436146034495 -1.2118426031684768
H -1.0928185042975411 -2.1434320776973363 -0.561518233201513
H -2.2279231564084214 -1.258750072628475 1.8523851249765468
H -3.442424976818788 -0.40176614838798824 0.276660886682931
H -3.5055435828465367 -2.2084332415505896 -0.15417054884467155
H -3.119736161112839 -0.9680273507065617 -1.3724379671036404
H 2.210853240520842 -3.2604941611420397 0.7999194291838477
H 1.236950064391357 -2.614593127909951 -0.5438849264125999
H 2.8048847629366462 -1.9020411824545789 -0.1511637222822147