31
asp_c5
N 1.1395478810329724 -0.10783853284306757 -0.5274137464802968
C -0.2639036821534221 0.05138473947817383 -0.239768505762125
C -1.2153947222594572 -0.8658309575556931 -0.7394102954587244
N -1.3786534700475908 -2.1661035362550773 -0.19437227148904487
O -1.264660811020042 -0.8364583926214383 -2.097792075212808
C -0.6096793967284753 1.4792946060729424 -0.690957646937065
C -0.4205924147443567 2.559862624701259 0.30584330659713965
O -1.4311344503863108 2.2326825498036253 1.3230598702300636
O -0.7880311743486996 3.7558486020243205 -0.2631101351838817
C 2.1837232839786656 -0.17260446886747205 0.32229397993224496
O 3.220975999520297 0.695858270088737 -0.13315549907547602
C 2.8122469782995667 -1.5048314874259616 0.5855304256312087
C -1.966414250524939 -2.2192703537942835 1.1096331997043607
H 1.3791167663206518 0.05874535943337223 -1.5465541723290852
H -0.25951245948514307 0.09773337179531912 0.9159813528780213
H -2.2555328925628713 -0.3142732795540539 -0.4259947443460314
H -1.7202985468170122 -2.820572652156342 -0.8330267666493947
H -0.38764160368401746 -1.1809153565573767 -2.4152271268133605
H 0.21664573137726933 1.688588338882698 -1.5183963826988496
H -1.5274430069715748 1.5721544074138067 -1.2424335835024076
H 0.5097636855366569 2.576661327916026 0.8716016133046716
H -2.302933967059389 2.2465982316360513 0.7833887281928562
H -1.1504468574129112 3.6496239703463047 -1.1829101040759438
H 1.8707834684660474 0.23527492934851388 1.3558510571861149
H 3.2513195967571655 1.4841094662077663 0.43183165973203397
H 2.968745217932936 -2.0419104685399487 -0.38976242372286074
H 3.856619484378317 -1.2935288017072406 0.9707661155959764
H 2.2446854954815136 -2.0807522686398463 1.2837312852874332
H -1.6622234916781542 -3.0765783793932893 1.6911935198905157
H -1.9511465805467099 -1.2454832502802506 1.600090023171349
H -3.098529810650986 -2.457468608957561 0.8894893424033755