31

 N   -0.291034118601   -0.976872668403   -0.456853742801
 C    0.698475667780    0.034628767319   -0.083228246744
 C    1.536177911854   -0.455977216341    1.108947760295
 N    2.114575697752   -1.762702434717    0.945171811238
 O    0.715214094847   -0.458528347275    2.242426416554
 C    0.179213182411    1.464556746679    0.147911132539
 C   -0.088895726115    2.236716553952   -1.143796562290
 O   -0.931248218198    1.569056604913   -2.000925054935
 O   -0.662257950744    3.482517699551   -0.861745162273
 C   -1.562309834931   -1.044529085182    0.216409392769
 O   -2.524104513521   -0.136937034164   -0.312601856390
 C   -2.114034460095   -2.461353212349    0.155232140445
 C    3.345676819812   -1.822351243912    0.182090242782
 H   -0.431247763362   -0.966484006134   -1.446538404827
 H    1.390480755930    0.071080860054   -0.919858835877
 H    2.356971755682    0.244541865739    1.253068294502
 H    1.422840899130   -2.365767041088    0.543755304712
 H    1.147469655252   -0.988835640382    2.899673752222
 H    0.923083583614    2.017485178944    0.719216737196
 H   -0.722346370333    1.459863170454    0.747828767619
 H    0.838821397332    2.376957700103   -1.691767664288
 H   -1.691804674026    1.279316162280   -1.505997288726
 H   -0.144788833517    3.938410959240   -0.212212641459
 H   -1.417537622322   -0.753189103726    1.240898074080
 H   -3.071188236607   -0.581013625275   -0.946770294706
 H   -2.220636805416   -2.787323173376   -0.877876723744
 H   -3.085143781741   -2.514845928807    0.636324131421
 H   -1.440360923454   -3.148380341682    0.651015930523
 H    4.111189205132   -1.234011564437    0.676188520783
 H    3.259339610036   -1.467153060338   -0.845509401721
 H    3.690604782085   -2.848858007863    0.150218265515
