31
asp_c18
N -1.5257865032617624 -0.1374967495535867 0.7997755898814469
C -0.13522121002643728 -0.04804690813892855 0.5264166053284278
C 0.1470174780834855 1.275914044118256 -0.16379900441251935
N 1.5735599895897956 1.6235099591434399 -0.1610891304132564
O -0.3781015822492931 2.2713987928120254 0.7148899837386963
C 0.348313255734473 -1.2359664233048988 -0.2455508949622077
C 1.8084305582813422 -1.3019392387063684 -0.558508757665701
O 2.647900393040787 -1.3176603545062537 0.5198949795026612
O 2.2172432152350883 -0.4502128849760917 -1.5769423461401737
C -2.509461147878662 -0.14754286697806776 -0.1590558578551094
O -3.768661252327202 -0.021928406843354377 0.5166233017437241
C -2.6587914072802348 -1.3104335332828674 -1.0889737700268498
C 2.0607709297469965 1.880871602294482 1.168793960455489
H -1.7284519032936807 -0.5002596412353338 1.7371847401027793
H 0.41389655663233077 -0.02468406766781111 1.4886461423347888
H -0.22245146655297265 1.3674488181390247 -1.1736377771717628
H 1.7549388377212785 2.4580276925200097 -0.7314219766056506
H -0.511178695659983 1.8694035021039381 1.5907522558029026
H -0.16336672087679865 -1.3188978087607277 -1.2398028209130159
H 0.06510265455426989 -2.148391078996857 0.3253310042450348
H 1.9433078975882425 -2.3462749846130073 -1.0358888891878568
H 3.1066158765600926 -2.18910044047922 0.6462620338555705
H 3.187966852127922 -0.29459517432911403 -1.4551233148974703
H -2.5309088322930435 0.7559430719119371 -0.8433708323164291
H -3.6254519159117087 0.29736016699341833 1.4328762817384664
H -3.758640945770762 -1.5812484491541599 -1.211028825068907
H -2.1872201959886355 -2.243991717233741 -0.7145700013644595
H -2.318273517922756 -1.1312103115277705 -2.1235070466949333
H 1.408218887440564 2.5646022836786866 1.7590934584483062
H 2.300434264054286 0.9649422511061858 1.7239700230598642
H 3.038249650903072 2.4204588554667645 1.0764732534330241