31

 N    0.787558741869   -0.701758409831   -0.327148113102
 C   -0.480027473662   -0.489634743324    0.347588002622
 C   -1.606843475013   -0.767004493482   -0.660501380364
 N   -1.585696736696   -2.085872824484   -1.234160294927
 O   -1.486033226822    0.171864945453   -1.694493816777
 C   -0.674875607831    0.847366472798    1.100696511283
 C   -0.449171287816    2.155210958744    0.352775318232
 O   -0.795601558153    3.248471810367    1.139217006988
 O    0.905711674650    2.242285880776   -0.009453802464
 C    1.955507454871   -0.961373845488    0.468361885339
 O    2.269847699518    0.042716448983    1.402631248059
 C    3.143690350981   -1.223835750217   -0.446738817383
 C   -2.182831158124   -3.138493638181   -0.437056853950
 H    0.953822688969    0.025704895897   -0.992347178426
 H   -0.562383738203   -1.261114206979    1.107977690563
 H   -2.565369411082   -0.643647556876   -0.160326758434
 H   -0.638351815323   -2.309915060574   -1.471444632123
 H   -1.947836362308   -0.179882595627   -2.444926798912
 H   -1.695317429623    0.880955434376    1.472285679882
 H   -0.021123973100    0.848873959636    1.965549733492
 H   -1.068785031893    2.225876038288   -0.524914964434
 H   -0.314375744281    3.207246957925    1.956716148776
 H    1.041593337217    3.072701142769   -0.448302599134
 H    1.760981308593   -1.841907654491    1.068320391551
 H    2.210281889904    0.888106579049    0.971807404799
 H    2.948269025008   -2.060954864485   -1.107196218358
 H    3.352204005344   -0.348311623147   -1.057260754986
 H    4.025665017487   -1.435333908065    0.145873450718
 H   -3.232453510593   -2.921041269045   -0.271601562727
 H   -1.714015665576   -3.291680610383    0.535760670234
 H   -2.123257027464   -4.071387028340   -0.984630114445
