31

 N    1.011977268129   -0.963475316235   -0.504917023212
 C    0.105669082571   -0.103123521300    0.262959268291
 C   -1.286594669004   -0.751156223742    0.216699558367
 N   -1.244734215637   -2.097273521835    0.727234225227
 O   -1.835134789282   -0.661799060364   -1.073701477811
 C    0.096635298430    1.323462143742   -0.304332791507
 C   -0.994841390873    2.228823286606    0.245581885509
 O   -1.036802994942    2.255789321602    1.638691712072
 O   -0.743888506538    3.497919807306   -0.264501389343
 C    2.372137355711   -0.522401255276   -0.767927845183
 O    2.979344438831   -1.487475432363   -1.574842682290
 C    3.254553607718   -0.373896338677    0.461837427148
 C   -2.550864929320   -2.642548193124    1.062210178419
 H    1.090770251555   -1.838458002726   -0.021405718971
 H    0.391302803385   -0.061074507541    1.310702922715
 H   -1.947994313660   -0.191665367020    0.860314158399
 H   -0.813892959330   -2.694305548819    0.048286981407
 H   -1.166958549413   -0.938093391802   -1.690189282804
 H    1.043700691282    1.811808818548   -0.093282808867
 H   -0.009521235167    1.296707858160   -1.381955447641
 H   -1.972770260460    1.884879204584   -0.058435215844
 H   -0.213499056306    2.601114564383    1.962132888170
 H   -1.448174421364    4.076755090203   -0.002709947993
 H    2.324310562341    0.421949558938   -1.296835596226
 H    2.417614911104   -1.641753774344   -2.323202814388
 H    4.257254919708   -0.087401407892    0.166645916231
 H    2.866169611679    0.380853590958    1.136954725999
 H    3.312802150949   -1.318208953877    0.993563497344
 H   -2.975052860730   -2.080018005494    1.886121571095
 H   -2.432990885898   -3.668408996761    1.391172058209
 H   -3.255104868044   -2.620818598105    0.233422258024
