32

 O    1.421809922661    1.303085465574    1.326549948966
 C    0.378165374197    1.347339844434    0.381286015543
 N   -0.691394114897    2.128219525440    0.930613030379
 C   -0.108744161381   -0.070275453594    0.032293437566
 N   -1.312523056610    0.042060342656   -0.796552428895
 C    0.945876627415   -0.956616760001   -0.662907787567
 C    2.182376143385   -1.405686448712    0.129146253489
 O    3.202089434799   -0.445162318568    0.128192495385
 N    2.682592253029   -2.625333821910   -0.445977732819
 C   -2.284821674724   -1.040154086618   -0.733435730766
 O   -3.133616666695   -0.906329990829   -1.833405909018
 C   -3.073735231113   -1.022071817510    0.567609775990
 C   -0.440762532391    3.557384146407    0.966648718202
 H    1.022173208679    1.206630593340    2.183184945252
 H    0.823952336339    1.803477829353   -0.502189663269
 H   -1.529497874820    1.922634810873    0.428170327346
 H   -0.392614932412   -0.531590571111    0.972145487280
 H   -1.044596996672    0.132962724463   -1.758847088092
 H    0.436080069713   -1.859933715171   -0.975887967899
 H    1.293534603832   -0.458119142563   -1.566754236857
 H    1.894568356922   -1.632367283160    1.153204412453
 H    2.909331040453    0.309301763612    0.626899462579
 H    3.505577072417   -2.903574474451    0.054966916275
 H    2.979517895281   -2.446243712734   -1.388282071534
 H   -1.824346240574   -2.015056059390   -0.860979574477
 H   -3.588818321786   -0.076206771951   -1.763954002946
 H   -3.823881985789   -1.803948592408    0.541301721933
 H   -2.444455180780   -1.186124268588    1.434111828629
 H   -3.570600225337   -0.063934985605    0.690207951175
 H   -1.293799711574    4.057473303688    1.409617136250
 H   -0.262686873045    3.989477948135   -0.019659017561
 H    0.424927672153    3.765231007389    1.582021282874
