32

 O    1.399068085168    0.407469831490    2.023980738192
 C    1.535336068548    0.484176708811    0.629666567870
 N    2.783119734150   -0.118597161442    0.231637491695
 C    0.223455854184   -0.050316008327    0.021869233947
 N   -0.062452333496   -1.348277503033    0.612820355507
 C   -0.909749865155    0.999408312320    0.159954584027
 C   -1.074272756481    1.922632886708   -1.044912934785
 O   -2.253618115169    2.684597927277   -0.931783353576
 N    0.099923125016    2.726679691785   -1.274958576856
 C   -1.073774966470   -2.215602738675    0.104061261590
 O   -2.368447034978   -1.740890623879    0.439365727015
 C   -0.970682246372   -2.447001185991   -1.397820169324
 C    2.971717741045   -1.555377217197    0.324492708738
 H    2.239400704255    0.630961871867    2.402464584996
 H    1.622542297250    1.518989434296    0.326781069129
 H    3.052710416872    0.224004683444   -0.667843215339
 H    0.421547648870   -0.200786819113   -1.033215547746
 H   -0.130050029037   -1.271761855302    1.606621769781
 H   -1.850585417954    0.489377908086    0.295835109261
 H   -0.743892558986    1.599700038972    1.054890778628
 H   -1.227049533349    1.326997321606   -1.935432800804
 H   -2.313905703088    3.051279657379   -0.059317622982
 H    0.268939424697    3.335500529081   -0.495057221869
 H   -0.046243082118    3.314145114218   -2.074187397288
 H   -0.929429956153   -3.167086808102    0.609474162213
 H   -3.018036900211   -2.385780440041    0.192882605999
 H   -1.672842769975   -3.218597128020   -1.700480494784
 H   -1.214759023544   -1.548662135887   -1.952099521088
 H    0.025920965124   -2.773820824317   -1.671150650620
 H    4.026398361193   -1.768333725189    0.182026743088
 H    2.689549639459   -1.894480774669    1.310874521642
 H    2.401866174172   -2.131692804276   -0.398348071214
