32

 O    1.524565866119    1.368492178969    1.151468087613
 C    1.347301281002    0.156357344681    0.451511052892
 N    2.244358080157   -0.014035614088   -0.653917288319
 C   -0.107538504541    0.131077200208   -0.026499298736
 N   -0.309526890784    1.150869931637   -1.061263936259
 C   -0.548205141318   -1.240383580384   -0.554738719459
 C   -0.455858488269   -2.398060978820    0.436711670174
 O   -1.048005855702   -2.098255282983    1.666156546248
 N   -1.126672869921   -3.553014860537   -0.122662284175
 C   -1.349094869386    2.115848916579   -0.864790139716
 O   -2.579281446364    1.446236436213   -0.650269494635
 C   -1.054773414877    3.091959851298    0.264111199264
 C    3.648593088730   -0.109813654541   -0.314882982045
 H    2.318066007392    1.328977219781    1.665494425551
 H    1.510653398505   -0.663767464442    1.142121599396
 H    2.088510329368    0.738830659167   -1.295629704351
 H   -0.716891701623    0.368484466506    0.831616998973
 H   -0.445893920244    0.711996584697   -1.948830575583
 H   -1.584285634564   -1.152243274176   -0.867132240160
 H    0.041102529559   -1.491019072622   -1.433557561576
 H    0.582437727752   -2.600450250554    0.678595574432
 H   -1.985705090783   -2.036747313774    1.526053284034
 H   -0.808418917309   -3.751681309947   -1.051292741275
 H   -0.952510159183   -4.361938815849    0.442555286286
 H   -1.416970394117    2.674096456043   -1.794910382540
 H   -3.255211020616    2.074634972224   -0.435709846936
 H   -0.987379794265    2.587425452403    1.218498686862
 H   -1.845210605441    3.836999090540    0.323956874925
 H   -0.116089748854    3.598426802316    0.083032552797
 H    4.225733980137   -0.281083264920   -1.215986108537
 H    3.809013896432   -0.959274888755    0.341858962162
 H    4.054775082701    0.777588725190    0.173632164830
