32
asn_c26
O -2.034603729633137 0.4616500186771635 -0.6897315748370305
C -0.7283257707839438 0.9418365021343149 -0.7773672466849199
N -0.6381777666573651 1.872304039843224 0.34828878364850846
C 0.25095438016333155 -0.16755526784104866 -0.7403831975903706
N 1.625141921547641 0.14920571622432538 -0.8542044866319382
C -0.04790576360889495 -1.2848902969317568 0.210424856013079
C -1.2980347708705242 -2.0495198372571055 0.0015215033830188645
O -1.310615797997 -3.137075105472255 0.9254750692933427
N -1.3983080086293778 -2.675789715174218 -1.2978903894834157
C 2.302147628166285 0.9631237345077788 0.03834214728760239
O 3.689666766520418 0.9147328741758904 -0.3505016163340269
C 2.348458689627413 0.4863211045151081 1.4761694077677652
C -1.9708159626652888 2.384406266375018 0.711779981241427
H -2.2780808329429956 0.1628607576157795 -1.6152759169833777
H -0.7007956100392444 1.5280940402507288 -1.725317287696405
H -0.11552064572786343 2.759576255472365 0.09855820372337222
H 0.07996743609892827 -0.7102846366007548 -1.7821202850202462
H 2.1223224076896323 -0.7636835479158437 -1.0875243927433464
H -0.06640797274790726 -0.8780031593477345 1.2740436772765933
H 0.8281750691225865 -1.990962644795676 0.18720328560166685
H -2.226346900022832 -1.5151012930581127 0.22246060419073427
H -1.1268021670295212 -2.76980839840141 1.8192398909797356
H -1.0034402772785609 -3.6391825196007868 -1.3453680169063358
H -2.414830122075643 -2.737730455381909 -1.594313702880783
H 2.0900111037638522 2.0253609494205986 0.04505374266126548
H 3.790121138756395 1.0014782503965305 -1.3145566602793453
H 2.42256332684929 -0.6296274297504424 1.42658567389917
H 3.246848722137416 0.8801892957852401 1.9966338742242784
H 1.4659363319690186 0.7576864712638186 2.061344441294464
H -2.401243173395762 2.813217453711962 -0.23780981510352023
H -1.9045535238626006 3.2281252340552173 1.4056023294317297
H -2.597506126443541 1.6190453431041236 1.163637117257229