32
asn_c17
O 1.3327538304699142 2.0500343040302957 -0.11201862081308483
C 0.08127718931020567 1.5277745190367797 0.20540384544221219
N -0.9123321621083159 2.427157216303091 -0.3341212520298252
C -0.10094894079089942 0.10948032036221626 -0.2927653567928455
N 0.8131822427000873 -0.824305378979705 0.2526435523072437
C -1.5124845368520712 -0.3147994116226787 0.0059806769037807
C -1.852226840825377 -1.7074700019593412 -0.4102246670702495
O -3.149330290042997 -1.9835279778935122 0.020212208941084747
N -0.9632585137764328 -2.6404090366323345 0.3071640738373048
C 2.199633702264284 -0.6214836895903522 -0.0335876502387384
O 2.4932685112591093 -0.2313444454217689 -1.310761925469321
C 3.03577391420047 -1.8435103486989455 0.28822519766519983
C -1.337313489530596 3.417778828387397 0.6401800948329303
H 1.3657625535973668 2.332621733387172 -1.0444116615188763
H -0.05700963012612955 1.5116299762212428 1.3286728535446877
H -0.6352671103643965 2.825967612183133 -1.249455705610665
H 0.0054822577293430035 0.1107045194297378 -1.4060559769671788
H 0.6794367573514207 -1.0649876410505805 1.241350927276681
H -2.1721973798419616 0.3802261811045626 -0.5847596044073269
H -1.805899687368208 -0.175894501562442 1.0615683934206597
H -1.8016152258653093 -1.8774802953025906 -1.4889058899163117
H -3.564089743191382 -1.2159090513415438 0.4688996500285268
H -1.2376493833828042 -2.5005239971125466 1.3304343180641494
H -1.338402839218368 -3.6175917153757653 0.08362984101964413
H 2.575635838460209 0.19221251493855324 0.646338874059853
H 2.414418398019488 -0.9535224510295226 -1.9882470034653696
H 4.029671438116545 -1.4978041998943357 0.6117190976173792
H 2.557426848306088 -2.504878246812859 1.0347170311407672
H 3.2025409205605313 -2.387233495286618 -0.6828734959113195
H -1.8131354668579067 4.254154397323423 0.0637118158099451
H -2.07423558601074 2.959797654605738 1.2996795878496104
H -0.45886757619086493 3.8631361082541638 1.1890916328595602