32
asn_c4
O 0.9528407985509185 -1.9842003847968122 0.4829078036179306
C 0.9503352894033826 -0.5711488309468662 0.6474153752578453
N 2.177181735465795 -0.080827440282501 0.12779575286683006
C -0.3023904774046011 0.022774905307465624 0.07192854570219301
N -1.5008227775611633 -0.5118292996344317 0.6744754472156009
C -0.34844199217389654 1.5029877366844355 0.4780257729759206
C 0.7518799909924204 2.350522344111183 0.005723189663481108
O 0.7395320244810549 2.40119112772279 -1.39888426180079
N 0.47460522766633667 3.7093845513457704 0.5300970764059083
C -1.797202057193546 -1.8650137975397432 0.5504147404770992
O -3.0520609195774324 -2.0690125667046204 1.220981403742635
C -1.9967903997952754 -2.390621000849437 -0.834117285868192
C 2.4526081089274476 -0.3354165095924605 -1.2504911255074131
H 1.3299009850364134 -2.234136514889719 -0.3890951478234718
H 0.993276646307963 -0.43384691945190434 1.7622699587276918
H 3.017358804665535 -0.20502356144619133 0.693394945417424
H -0.27620120473765264 -0.08283409396826691 -1.0103080355261933
H -1.7201930619113983 -0.12141194853910035 1.5938834213150916
H -1.3051393772856574 1.9396675493094353 0.06125760357361013
H -0.4976523233390841 1.5822041229509316 1.586012359768659
H 1.765929287184022 2.1415131905560694 0.3244034807285388
H -0.12326373501878461 2.1221783261295086 -1.7529270483531991
H 0.19787769950907463 4.345095239856801 -0.22377580778946193
H -0.14153893110731 3.667207338082611 1.3576135190929675
H -1.1146173457718216 -2.5161121135966873 1.115648086729754
H -3.06238290392837 -1.460476202646988 2.0181506022917364
H -1.1110644786220936 -3.0386867302645872 -1.08609309227331
H -2.8545191220031403 -3.089888026811195 -0.84162255001349
H -2.1952108817905645 -1.6417879336935397 -1.5958407373582415
H 3.22924165506576 0.3730391469694584 -1.6330593039041055
H 2.828862389304625 -1.3658699686993026 -1.4417723808073508
H 1.5380613466609554 -0.1596217346723751 -1.8444123085456665