32
asn_c10
O 0.43653388975690766 -2.309814710417684 0.7136660028027468
C -0.36474618053942215 -1.3153692706158784 0.2030101142950215
N -1.7728911497758542 -1.5541749473855573 0.5051630848718645
C -0.0305983768002043 0.06179436341852584 0.6677287287381479
N 1.1796450149030488 0.5720802681585491 0.26380490475275725
C -1.1990506355897885 0.9391478967036361 0.19048723689479594
C -1.0624838268748513 2.3766883873452778 0.5950084692339991
O 0.03322200386220523 3.0353026079435237 0.10579210407861493
N -2.2366835429767558 3.056742247015748 0.0650117046299484
C 2.457989785601529 0.12329816847780328 0.5292116728754466
O 3.4133812152499803 1.0959826444717633 0.1397172191602063
C 2.84083753620475 -1.1661246238370155 -0.12493492596198484
C -2.120408478508415 -2.8351639733173455 -0.07231663591368054
H 0.39270764024171817 -2.242209195119576 1.6994698590341335
H -0.2296783394026808 -1.3608297259387407 -0.928296411905371
H -1.8461921219074025 -1.6467043805359713 1.5422702751541129
H -0.1086546644152391 0.031041201263810003 1.8097886726636614
H 1.1244313133108266 1.181054967121458 -0.6238405531820891
H -2.152226151282731 0.5668524139487137 0.60391392135614
H -1.2235859355218155 0.9044708517800768 -0.9091930592634528
H -1.0704482952322214 2.475308640249092 1.7079307023782597
H 0.7139955576805345 3.2472140054432845 0.79067280753107
H -2.010466201422417 3.993312081794705 -0.28162361975579064
H -3.051427292102612 3.033168797101696 0.7148520434347494
H 2.5757115663767896 0.0009736334237638779 1.6504702265842859
H 2.966015414247964 1.6807007314014621 -0.5173889587514878
H 3.0140198261187465 -2.0107391683361127 0.5895985504805759
H 3.866002232441116 -0.980811219234705 -0.6418393942556124
H 2.15942191255005 -1.3921767151972149 -0.9503871075299211
H -2.080446675225843 -3.653632627026726 0.6589672010825246
H -1.458232568829941 -3.097431163813795 -0.9196002688508916
H -3.1556944721380344 -2.8099521862866346 -0.4861880577863645