32
asn_c6
O -1.106012744175808 1.6728424786108882 1.4975065663059197
C 0.01845395584036981 1.549092723466512 0.5771682711620629
N -0.22065242341810248 2.4482128849221167 -0.5062782050819021
C 0.10172144072856716 0.11761882954129846 0.3021970290873907
N -1.0552325586044502 -0.4168114049483214 -0.3844242564114453
C 1.2494463101180506 -0.2942822198024131 -0.6280752553261791
C 2.6239573788154873 -0.02622668160314604 -0.1646356666834528
O 3.476283277884743 -0.5302014824296516 -1.1932485364606384
N 3.042599908540988 -0.6808498468590487 1.0675149540648148
C -1.4184409776136548 -1.7126975728536866 0.10294419416733767
O -1.5949873481743164 -2.6648197507589884 -0.9287480964862702
C -2.4575896351617272 -1.7805795186474196 1.1588924617469938
C -1.4605552621478286 2.384207112905459 -1.1551621853454563
H -0.7041896654198947 1.2770763415314623 2.338267085280783
H 0.8778992340762398 1.9574980494048844 1.1419515399882112
H 0.5467842900181924 2.8187149858261327 -1.0398132975508467
H 0.19927117776669243 -0.43530768293885935 1.2731442450783834
H -0.9058671421552359 -0.5352821963018386 -1.42734304979161
H 1.1361416719987603 -1.4401333391166098 -0.7029275943321106
H 1.07226276149012 0.15590571185900176 -1.6040484005960736
H 2.832105111443226 1.062937615143639 -0.13609683737026884
H 3.0647920630915864 -1.3718008093754248 -1.567503808920721
H 3.072363668089707 -0.02899721795926669 1.8866390616599344
H 4.065947870435684 -0.960534369784139 0.954465354211673
H -0.45582626381631425 -2.1191499648873195 0.6509263706555285
H -2.0943846819583136 -2.2643798654629035 -1.6580200020259641
H -2.108717093613437 -1.540113436989719 2.144875985176522
H -3.321582750251255 -1.116002868528725 0.8543513847335303
H -2.902330377599351 -2.8283550737480314 1.1233847949155762
H -2.3090067204098976 2.395053798938129 -0.39404784346991917
H -1.6233363285597622 3.354164337880423 -1.7204960920874754
H -1.6413181472589506 1.5532004329656475 -1.863360170294251