32
asn_c9
O 0.6080545871722385 1.6607435463513127 1.1503559008563276
C -0.30949373353534226 1.1949625907501495 0.22473590164119578
N -0.6218489372008009 2.263080546300712 -0.694549646393631
C -0.05035436060842638 -0.12473102544005613 -0.3738877072669656
N 1.180239106521427 -0.31602180845761846 -1.056704557651025
C -0.5264026790348462 -1.320785294871803 0.41310551178194266
C -2.02727482177331 -1.3101741085263567 0.6003468590178986
O -2.40546200672403 -2.4834210008344977 1.2798496815820026
N -2.7053066185919636 -1.3217784041921772 -0.6984495429077444
C 2.372165062071845 -0.21199428418970223 -0.26637921918135476
O 2.1451814246336567 -0.5094261045039392 1.0760016938733863
C 3.3725183252865265 -1.2457925481158107 -0.7574151085483813
C -1.4507981919823094 3.275108957321382 -0.009904534478552787
H 1.1700635768953953 2.4118608171233267 0.7695334482189694
H -1.2667239319567183 1.1167821020416657 0.8576921202509984
H 0.18488622650262765 2.659646694018771 -1.1554818070958508
H -0.8061686026094421 -0.1530959409283767 -1.2695900128606594
H 1.1523362001663175 -1.3082797270499849 -1.4375476137073744
H 0.0037999531853256446 -1.4469481268741322 1.3690469909656249
H -0.2819854803973514 -2.2044790594153767 -0.22604278253487325
H -2.4222211405741705 -0.45178732536311084 1.1479541146130043
H -1.9819285342250235 -2.515465380022663 2.1776195654294077
H -2.947268703113094 -2.2875318625395926 -1.004439751023132
H -3.6017411518168654 -0.7715731556714782 -0.6702498180187986
H 2.8803833995334744 0.7683966554853384 -0.39275247992121126
H 2.3740004876923946 -1.4584695125828857 1.2470472449749608
H 2.928897953216523 -2.227339903761218 -0.9427727348164804
H 3.791317841323061 -0.8772511776402279 -1.71568554760283
H 4.255698351400856 -1.3061424853852959 -0.0663472752371817
H -2.021393444832981 2.757058391720193 0.7934807790930686
H -2.1480895147480967 3.6564697375494966 -0.7557683406569129
H -0.8450806418767896 4.088378197703975 0.38719866760423033