32
asn_c15
O -2.4256912298156896 -0.6473148384342999 0.5022224442042195
C -1.1430060162485125 -0.9840477191460565 0.89798835694202
N -0.9820411788655365 -2.407052991980594 1.099912820584983
C -0.060656958990202084 -0.37445977069503533 0.03569040400177667
N -0.1403955950343949 1.0375331431743582 0.10294224182925232
C 1.3026728890786732 -0.747737363760717 0.6468898337154118
C 2.43506411093227 -0.19206334579395892 -0.16522086178159837
O 3.6264542976708727 -0.5884820229493825 0.45067347823753096
N 2.4317430739550323 1.2432153303327365 -0.30477000090079587
C -1.2705602448744093 1.718083845910663 -0.3736000842664775
O -2.2922302409181046 1.9065338333685933 0.5938154042509043
C -0.8203918538467327 3.157405414091513 -0.6896315379621839
C -1.0474277459140768 -3.2030673529413245 -0.07817037574843307
H -3.0873208063113258 -1.3688228551860202 0.6383669182782841
H -1.0624257806329687 -0.5460140991729598 1.9405939911503558
H -0.12687452824908796 -2.64674682664151 1.6425039655644365
H -0.10000958628870764 -0.7767856893657619 -1.005555152422419
H 0.3696286346275394 1.4765844406828912 0.8685309125121663
H 1.3721176271625004 -0.42031694962737615 1.698721056131043
H 1.439975412239414 -1.8492995064655686 0.6456115111371019
H 2.4432716968075074 -0.6328368974799016 -1.1899313871079304
H 3.79164517756277 -0.12008370836592563 1.2849304953721066
H 1.9334795557559887 1.5274720680577456 -1.2015573786835825
H 3.441787564666269 1.5178551571718 -0.5315423941640942
H -1.7024827593345064 1.3431206837990917 -1.3153644638998445
H -3.081855220155267 2.3414140221315787 0.16219927439857135
H -1.4976193259673456 3.6092244119704215 -1.4380260284196176
H 0.24993967914623436 3.2041051670534726 -0.955385532441478
H -0.9607959950407868 3.757615155243225 0.2595697034170728
H -1.0524178335766197 -2.5786145674746845 -1.020977511957652
H -1.8706094911511932 -3.9528045613533287 -0.10338673606939933
H -0.11296732838965451 -3.8036116061537024 -0.1631168281655066