32

 O   -0.536824365773    1.318851405774    1.052055193680
 C   -0.515132044057    1.325974172089   -0.343628335899
 N    0.454140099897    2.281441586851   -0.833370400776
 C   -0.173991724843   -0.097443725784   -0.834305497825
 N    0.896589450908   -0.769546093048   -0.139753509435
 C   -1.423794976152   -0.998642263659   -0.882172516658
 C   -2.200499076127   -1.240751246628    0.413927060771
 O   -1.362271265956   -1.910374926906    1.305561649347
 N   -3.397352973099   -2.037392197922    0.237639637320
 C    2.265894188804   -0.342443399351   -0.282227190248
 O    3.087601790863   -1.474829563406   -0.439623567710
 C    2.825349546696    0.425764512297    0.903499766753
 C    0.187467991608    3.659924332135   -0.476836702310
 H   -0.990584642464    2.082926763758    1.377282388670
 H   -1.517723845562    1.587609452125   -0.703166678991
 H    0.526721159880    2.198386203244   -1.827830934578
 H    0.139477568424    0.010519539027   -1.870598596265
 H    0.646521761904   -0.990666279620    0.801556954013
 H   -2.124791511223   -0.571940686840   -1.597244856961
 H   -1.114941497525   -1.964546699045   -1.269269158299
 H   -2.518400900686   -0.294782671130    0.837321243472
 H   -1.878492842249   -2.146521807832    2.065583217993
 H   -3.192664184903   -2.873831547561   -0.276875634604
 H   -4.108061404376   -1.533975942873   -0.256900370999
 H    2.328956203040    0.271450342334   -1.174348544216
 H    2.576212268721   -2.125886642913   -0.900134153451
 H    3.873453006808    0.650597307866    0.737582743529
 H    2.279086350116    1.345636025050    1.053045874114
 H    2.751671057730   -0.183957059579    1.799001986104
 H    0.356242501995    3.809465213970    0.582741264386
 H    0.877905835792    4.305519366362   -1.004910521319
 H   -0.830128579555    3.985948451191   -0.712703676604
