32

 O   -0.301546373687   -1.986745432137   -1.949241263132
 C   -0.966890147512   -1.327544193600   -0.899241909866
 N   -1.451708388758   -2.204407771491    0.141980540323
 C   -0.150830023539   -0.113666846977   -0.387284054470
 N   -0.730181083184    0.485224293411    0.803538654614
 C    1.349281586328   -0.427631025764   -0.182706080376
 C    2.144377476222    0.639852433353    0.565507978515
 O    3.478949654088    0.221389454560    0.731039914072
 N    2.032399937635    1.933543072109   -0.064647696693
 C   -1.559758427905    1.673417994805    0.658116640839
 O   -0.876946433549    2.659778389053   -0.041388496458
 C   -2.898649542242    1.478346716928   -0.044128600732
 C   -0.527334597005   -3.082941235301    0.837044042564
 H    0.509676920125   -2.365171413647   -1.641984220643
 H   -1.856419533467   -0.932337953287   -1.364172509943
 H   -2.197020745971   -2.750467208875   -0.239958762461
 H   -0.201653840035    0.618946338185   -1.180423891066
 H   -1.204772219573   -0.203877930195    1.351189240514
 H    1.812008028912   -0.573663840290   -1.159357890168
 H    1.500791256981   -1.346382589344    0.370856642655
 H    1.762781707249    0.735864254585    1.567494674000
 H    3.865826373685    0.036644469591   -0.114941796085
 H    2.651632018483    2.581236917526    0.385110211173
 H    2.286583936465    1.899518193377   -1.035020719059
 H   -1.758176335078    2.000452148447    1.677579401339
 H    0.057793289583    2.594479360827    0.144298811439
 H   -3.483543411483    0.705584535327    0.445608584153
 H   -2.753448818397    1.207114777699   -1.083902534981
 H   -3.461522793383    2.405266604007   -0.020051917701
 H    0.125688207323   -3.659888221123    0.181513989749
 H   -1.104084136874   -3.788586820814    1.422045184703
 H    0.089485751175   -2.524351969969    1.528882485360
