32

 O   -0.706543451555   -1.256270282877   -1.804244858065
 C   -0.955976362597   -1.173244247348   -0.437598657676
 N   -0.700877376850   -2.459723976120    0.190150713542
 C   -0.059372033919   -0.110013370216    0.218795039526
 N    1.319430337242   -0.498314736534   -0.071358500080
 C   -0.399779216938    1.297900458855   -0.300680378104
 C   -1.360503975670    2.069489329592    0.596086431545
 O   -2.519162704736    1.304815572508    0.762678649405
 N   -1.741912921563    3.372623492752    0.096778846695
 C    2.380911833931    0.207178522942    0.588086005847
 O    2.761611205580    1.294405143829   -0.222607629701
 C    3.567950137493   -0.720186070822    0.812072637838
 C   -1.501532775438   -3.549161575738   -0.343414143686
 H    0.235128185506   -1.224359002234   -1.932373648940
 H   -1.993744686535   -0.876704979064   -0.345278905684
 H   -0.877366324645   -2.374521095668    1.173365807558
 H   -0.245479456486   -0.136169728898    1.296127857321
 H    1.401246016611   -1.479500835297    0.105130535368
 H   -0.828357489960    1.218679403518   -1.294524103339
 H    0.506690067659    1.879177645028   -0.394335292719
 H   -0.888390963782    2.235650094151    1.563693781806
 H   -3.169085465355    1.856079262428    1.179786407989
 H   -0.977493477522    4.018280788332    0.142981455804
 H   -2.030060733053    3.307832128879   -0.862072991151
 H    2.046517862551    0.599792258927    1.552325254688
 H    3.389413112249    1.826135394674    0.247815810887
 H    4.400713232725   -0.176239985006    1.247319613869
 H    3.312146835867   -1.532093451304    1.485939283802
 H    3.889928708601   -1.134145213344   -0.136823891790
 H   -1.286313687334   -4.453526963127    0.214248229038
 H   -2.575074519175   -3.359577442235   -0.291725311919
 H   -1.241153803504   -3.716625237566   -1.378031305137
