32
asn_c3
O -1.8046802366652905 1.3227029260512846 0.0988458413817863
C -0.45741236635859944 1.1767601636146907 0.47897223759215257
N 0.35962071047371424 2.100106694097213 -0.27528085528061985
C -0.05436252999225628 -0.26574163130322037 0.36686323767181644
N 1.2931147954643736 -0.5234207484545553 0.7400200662955335
C -0.8867185148231739 -1.1032771913970596 1.3184824534095896
C -2.347180907218709 -1.091565198139604 1.1121203273510514
O -2.84759245187999 -2.1350534941536607 1.968310185224353
N -2.638702395444355 -1.5787497061267364 -0.23549873898540852
C 2.3613777242212413 -0.005574169652410546 0.008098231669421266
O 3.5473130975194276 -0.4502176092922411 0.6534201041460463
C 2.4789538266442714 -0.521114431331562 -1.4114828347359452
C 0.3040139756965371 1.9528914986947632 -1.6886824084458238
H -2.108076564804386 2.2457457206926996 0.26736202223466393
H -0.4039566220166761 1.4805213046970052 1.5420261524063694
H 0.1244073728845307 3.0560849646080923 0.04910080181083093
H -0.27924265272314347 -0.5722818761035137 -0.687684366521596
H 1.4250794354539846 -0.4840632521384445 1.7544355568854435
H -0.5581524911448067 -2.1854750159751495 1.2524881348362165
H -0.6469890233687423 -0.8128365717062352 2.378960697148253
H -2.8894688250519254 -0.17387735855355393 1.315877611750453
H -3.7715195014620604 -2.3319901005400108 1.6756645217608988
H -1.829218164317899 -2.001173143087866 -0.7022537717021923
H -3.1535465031925622 -0.888873161483753 -0.786446725933618
H 2.474220559354635 1.1097627176225546 0.0228655719993994
H 3.9254123683827378 -1.2303151821061482 0.2139401998029046
H 1.4717079309062497 -0.7093137501178323 -1.8382380186533607
H 3.098860360702292 0.16745929457865472 -1.985830402408131
H 2.9922008102814606 -1.5038430753041743 -1.370984159827041
H -0.15937209971172464 1.0260389209978098 -2.056012513358618
H 1.3204785106909316 2.1412606294685785 -2.0883393360312104
H -0.34056962849999173 2.789421831844575 -2.091119823493638