32
asn_c21
O 2.3713150514631307 0.42977841820097296 1.2778386886298383
C 1.4036115131748494 -0.4792865529424781 0.8446151999789961
N 2.02417703572476 -1.6577610895375938 0.2871314093731618
C 0.4916349871600382 0.2095283213861048 -0.12769922352291221
N -0.5449728234758034 -0.6558635623677136 -0.6336415091382344
C 0.013906483290574737 1.477985017311352 0.4721144469528402
C -0.8968009578389147 2.3099767062704997 -0.35545893206580603
O -2.093362876715716 1.653907212111183 -0.6131687807347229
N -1.233769919685907 3.4990679837623015 0.4424656849013065
C -1.4267986972412732 -1.1557087175791876 0.3917198832174935
O -0.78884689851932 -2.259182387126268 1.009872770536168
C -2.6798638328068907 -1.7259432144880418 -0.24521862321248472
C 2.874925710684257 -1.3365133970055358 -0.8446410329334515
H 2.8475261145464406 0.8738396588689991 0.5512542588197926
H 0.8678409319811355 -0.8049263646833247 1.7681991981653027
H 2.628951014722209 -2.111976490115137 1.005131220182183
H 1.1293569506800203 0.46829422059456194 -1.023648285780839
H -0.10747215096943699 -1.4796137238862177 -1.1026143579255325
H -0.4815029248375185 1.271817952721798 1.4421399446898866
H 0.9305116883434421 2.08805843193755 0.7152463969121646
H -0.4280346657877421 2.6962806883220187 -1.2858888169750904
H -2.6267866329795324 1.6458679436027333 0.20902743459980336
H -0.4548708497681582 3.7169582854636145 1.081467587438751
H -1.5393463547911985 4.289720222819176 -0.16377678227834405
H -1.7267093989047382 -0.40851425171050965 1.1219077012433099
H -0.8208746752497249 -3.033062176985645 0.3866071801978559
H -2.65609230333372 -2.8245801387532565 -0.3334503492748989
H -2.837486087954111 -1.265555569423792 -1.246223675800882
H -3.5968210186418164 -1.4920048449761236 0.3554036663001424
H 3.3917876306604047 -2.291682059093545 -1.1168924767932171
H 2.294959177078153 -1.0406071202534481 -1.7411664306474475
H 3.6699087799918515 -0.6082994024453425 -0.5837810735457009