32

 O   -1.204165315900    2.272993730022   -0.553472308204
 C   -0.167594412016    1.533247998315    0.057108652035
 N   -0.468942636477    1.269208292592    1.422023802258
 C    0.129017852216    0.249282428957   -0.744319861423
 N    1.182655358166   -0.535838020675   -0.113923390607
 C   -1.081966738429   -0.636487351655   -1.109974989083
 C   -1.672960737006   -1.552609523849   -0.038023410965
 O   -2.494312378140   -0.787616695048    0.802670292065
 N   -2.482354240289   -2.632487321174   -0.563690378088
 C    2.481475956638   -0.581461587668   -0.745426087259
 O    3.209031067383   -1.636133881003   -0.189634026678
 C    3.345773638173    0.661716970441   -0.588683255443
 C   -0.549035930684    2.447458198963    2.265439262645
 H   -0.889791501827    2.675849028031   -1.351286664435
 H    0.740962167643    2.130931747176    0.043786561746
 H   -1.310161932655    0.730183176434    1.483625202478
 H    0.500368665537    0.607809214637   -1.703210428856
 H    1.259555989984   -0.300924962294    0.856990032912
 H   -0.733339230534   -1.289173486525   -1.906395744860
 H   -1.879750894549   -0.024375245392   -1.517715842230
 H   -0.870626431590   -2.007204302662    0.530656262732
 H   -2.975992477818   -1.391101452366    1.354279400379
 H   -3.135054903274   -2.287471923757   -1.243089187833
 H   -1.916772551008   -3.331016723142   -1.005252337371
 H    2.310490151351   -0.763830239832   -1.804827450326
 H    2.626977428516   -2.382021349011   -0.124926371809
 H    2.879189053474    1.523048945764   -1.055561344995
 H    4.313317752247    0.504802514567   -1.051973422169
 H    3.501195821827    0.875315581661    0.463741020659
 H    0.407522617212    2.960870839509    2.267352975834
 H   -0.756836084246    2.137845138315    3.283126363138
 H   -1.314267615002    3.153945997111    1.954604614237
