32
asn_c28
O 1.6746160205725598 0.5025013186065566 -1.5402626700416402
C 0.540832143833373 0.9615701644495978 -0.952455124773613
N 0.7921136196027052 2.346497827523501 -0.5255460895279919
C 0.16662955182006428 0.21245265304022 0.2973245956120809
N -0.9925379418277573 0.7034632877750271 0.9427943867548928
C 0.1846340126262164 -1.268786517687587 0.19814973874702876
C 1.5072321099191113 -1.9022864621111755 -0.1442406017013545
O 2.5316707987853424 -1.6189336022035303 0.709299082006898
N 1.2286683621889396 -3.3566707378137823 -0.15499927635165978
C -2.2485665188372104 0.6691629240917482 0.35028965895334674
O -2.376839158323083 1.360113548069046 -0.860355786962324
C -2.865780780859072 -0.6946792251586166 0.0931448315465929
C 1.8986155912700589 2.4295919426188086 0.41515822799050717
H 1.9380844334046379 1.1734508139590065 -2.248195384319662
H -0.25146130238203307 1.026114187195292 -1.7065524534382863
H -0.08428011324244562 2.667064375531063 -0.08255791268506948
H 1.029830335121747 0.4644728344995713 1.0062121538737285
H -0.815751597916411 1.489087418513003 1.5894719077564075
H -0.1064243452510419 -1.6761470883842213 1.1945516187027194
H -0.5383236664123456 -1.6618798422628684 -0.561266643708957
H 1.8386331109650316 -1.7120698133795298 -1.193735037095882
H 2.5616132826537217 -2.1340522497674934 1.5409282083345763
H 0.6365579862267914 -3.508732466653078 0.7074468250501821
H 0.6903730881914262 -3.524857438674746 -1.0330179811631508
H -2.9607550070039528 1.2144146307152588 1.0488085956257946
H -3.311579965019271 1.445041278090677 -1.1390694648101711
H -2.78455905083029 -1.0113477876996613 -0.9640553849761491
H -3.9924897795973626 -0.615552158516563 0.245020325938427
H -2.4765284699681196 -1.4897973102061344 0.7308458755735405
H 2.3930353649339597 3.4149762550829865 0.2582522144200025
H 1.543607707580619 2.454929037672057 1.4770302127810944
H 2.6491301777784253 1.640888203074888 0.30158135188227525