32
asn_c16
O 1.3356340897104253 1.7433116267277686 0.7022381222387878
C 1.1026907600484883 0.3870398771100955 0.599790030370014
N 2.088006428375932 -0.19208539857692114 -0.26883631598245855
C -0.30416186223530944 0.10995258495070671 0.03797195548731507
N -0.3731702373982019 0.7820033398724529 -1.2240863704543499
C -0.4086072796957801 -1.3967662630435325 -0.18009353217180227
C -0.2411418356565357 -2.166717350043446 1.0958313312603163
O -1.3340085515921298 -1.924812939276587 1.970882826877651
N -0.36966919554530736 -3.5995960364780006 0.7568113988879832
C -1.5672303465102184 1.5943402980814585 -1.34841040643827
O -2.6607199970938082 0.7442858055023487 -1.3262345314577066
C -1.7129876660225696 2.690492963636744 -0.36645908865445453
C 3.371788647879623 0.385897964064183 0.012662589083917153
H 1.7957943550951596 2.039117669540542 1.5072659515489721
H 1.1520328808844877 -0.0926131108471035 1.6246507654480857
H 1.8358421958439632 0.02546405603070233 -1.2489835773099311
H -1.0806599173757965 0.42210423762302013 0.7274641708905646
H -0.39692741907563095 0.09038685753964737 -1.9892111438380795
H -1.3967617929743708 -1.6667881196007759 -0.6059127363296245
H 0.3581898059179734 -1.7559863631131627 -0.897493050273204
H 0.7062073507197117 -2.0514116680449406 1.6093842820334028
H -2.1415135988856555 -2.2644247130441246 1.4863324833375828
H -1.1339364395798885 -3.719073714634325 0.058931567734113705
H 0.5006793894336335 -3.9916919968028766 0.3779690292688829
H -1.528676199433602 2.0533487384633684 -2.378556713839734
H -3.3409570144136946 1.0449887607618549 -0.649814200780329
H -2.1985133900841216 2.3494827388350803 0.5936090279956481
H -2.4532692294557634 3.4188286150775364 -0.7806282247113177
H -0.808453928861925 3.2538753210075035 -0.1255451650243988
H 4.163921946029157 -0.39698416826319916 0.01699856351142053
H 3.398877075554 0.9150598067353863 0.9755752560527816
H 3.641700976397854 1.1689705802085566 -0.764104294761697