32
asn_c22
O -0.3258174871698515 -1.5871411233171806 1.534224019514528
C -0.227763676253605 -1.7667081640877336 0.14220118096889645
N -1.4930249574207195 -2.192095406365629 -0.35529558124613225
C 0.210343109124949 -0.39986272664748346 -0.3859854011469197
N -0.6332261828550961 0.5556791299397555 0.28317941632648846
C 1.6541857511946396 -0.2972976294548411 0.02056979580444886
C 2.3390459658162355 0.9515270786694466 -0.42864388663422814
O 2.515844419241851 1.014448437499218 -1.8029501592066457
N 3.6873245361785467 0.8933739626337326 0.14268105369998127
C -1.2295497527125012 1.5428915578788123 -0.5618795107335085
O -0.37395987435983913 2.0542961784740803 -1.5183717324096724
C -1.7545867383775013 2.6332368522956444 0.3665944529622051
C -2.313426205145748 -2.6773526341394245 0.7530750524105054
H 0.5088114455246183 -1.7423044120260298 2.0088466837014396
H 0.5940824253611753 -2.497256832833764 0.0018448664053736282
H -1.3484330959505757 -3.0338314855404795 -0.9712264056225485
H 0.057417457047067244 -0.42132727460598945 -1.4801679887050077
H -1.3990999386118887 0.1252997343195486 0.8497461802950882
H 2.1989768559738554 -1.1595509515660953 -0.4156600674893901
H 1.7065465663960977 -0.3544258221743166 1.1184294587165609
H 1.8845969646362757 1.8575863277383562 0.005028969682037406
H 2.1850130338651796 0.1893681343116272 -2.248994128802242
H 4.161759050526 1.8298422571921589 0.06005561988375475
H 3.524637570705084 0.6367591694507869 1.1545789456432334
H -2.1295603164083228 1.171191455738015 -1.1116024576136838
H -0.8726978647124355 2.5577387691686844 -2.192264638418918
H -2.5169290198043686 3.2653294772049 -0.10810416591460177
H -2.204896548674452 2.0886216096167742 1.231587227531365
H -0.8823391932939519 3.1926712332179856 0.759110522298114
H -2.92675477300498 -3.5557126031866733 0.45438698091029367
H -1.646471519619594 -3.0281089372423136 1.5816002289644555
H -2.9500480072160187 -1.8468853621616415 1.1134054682248107