32
asn_c23
O 0.044681690165743825 -1.2525407070632864 -2.2611044430100873
C -0.7128823290694851 -0.763713722355643 -1.1888045875555457
N -1.3715094864196458 -1.7311969077886067 -0.4445428276389703
C 0.1597459961434631 0.15649332099278426 -0.3991911105992795
N -0.41946252398592043 0.7528230909084731 0.7267319461530641
C 1.4727207655968722 -0.5089445111199475 -0.035149509817847105
C 2.3571116343508476 0.43331772996917156 0.7619206322783405
O 3.5523618065185283 -0.23966219198081665 1.025643976600048
N 2.680969255104739 1.6423556145750338 0.0352869842392277
C -1.4543250610089355 1.6863111300132203 0.6510547097231258
O -1.0422635086661431 2.876706349316806 -0.015501731298596347
C -2.782023522141396 1.2813028797260604 0.10738418659552607
C -0.7468888428811339 -2.7454090292338185 0.2684314988405092
H 0.7263280732171337 -1.891838314688011 -2.0224489250661017
H -1.4910858508026503 -0.1171404801982853 -1.695521253267869
H -2.3579334220507797 -1.9151889535013737 -0.7361772355590979
H 0.44221228859314893 1.0464462778841266 -1.1142255346665637
H -0.2762763408019712 0.2727580610019122 1.643731836224566
H 2.048311401923624 -0.8023783869471635 -0.924670452297902
H 1.3251956250980812 -1.3864828854815159 0.5999572711220886
H 1.8733609339409418 0.6758469150924497 1.7383525044611534
H 3.798276659777236 -0.8888760691989127 0.3318887191456441
H 3.673992901703712 1.922496779807618 0.16088328387125425
H 2.47862142479476 1.5434781437242246 -0.9728463295042787
H -1.662205897672413 2.0684727832235974 1.7055791033676966
H -0.8015774372363356 3.575693679323456 0.6063633746090794
H -3.0086320942548492 0.23415764237968004 0.27256735687173106
H -2.917676440184887 1.5582101004308782 -0.9776329168265205
H -3.621880354367295 1.8380078564689872 0.6439009680759666
H 0.12840688495881616 -3.2471845378885873 -0.187680700492496
H -1.5011191934851376 -3.6028075714226713 0.35082922451705223
H -0.5945550368586249 -2.4715140859698526 1.3449899809050423