32
asn_c25
O 1.4491248640598895 1.2108595690618664 1.2746316091684935
C 0.4113237637659953 1.1642808783201815 0.3673754793331898
N -0.6898165557756533 1.9602008544304608 0.9154977037916316
C -0.02680059889041401 -0.19037349565901332 -0.0674926928238417
N -1.1713292541538973 0.009715872392264437 -0.9621096477768203
C 1.017806064078239 -0.9475974756055502 -0.7950666063804414
C 2.2880819877579093 -1.286255332982462 -0.13092201819796404
O 3.1041020945614304 -0.26418432267348646 0.27761705425165073
N 3.108901017427039 -2.0633435226101833 -1.0923312849264284
C -2.1447041335001646 -1.0376688670065017 -0.8389599540001023
O -3.1536590274222966 -0.7351812519708897 -1.7862425160652908
C -2.7937252588242987 -1.1791323908995237 0.48336666089915775
C -0.24811277170555335 3.3289492454535217 1.1455740948106925
H 1.1417325356218577 1.2496078085638602 2.2163568810885765
H 0.7811312966384656 1.7810127050207771 -0.5201025496226676
H -1.5147116664969669 1.921685742102535 0.2732378730566266
H -0.41736928008843666 -0.7132455736266018 0.8303147976825053
H -0.8817128838894398 0.08438333643834159 -1.9573090699631674
H 0.591141785282728 -1.9473197099414719 -1.169145285985251
H 1.2484561483257128 -0.4407681074261145 -1.7922648570954454
H 2.1285369483745047 -1.9670198115576696 0.7444491252233434
H 3.6049038920362477 -0.46271809421779714 1.1323433136995622
H 3.432047913098844 -2.9554832495499124 -0.6590698315736587
H 3.9559969370518986 -1.5307865238270484 -1.38801610075974
H -1.7390327802167969 -2.0312357230764264 -1.1421681286107321
H -3.866705959560365 -0.21030169460148598 -1.3515944772118262
H -3.8470554348788037 -1.5570731476051014 0.3068555155567061
H -2.3535248507405058 -1.965818908994367 1.1291463604698535
H -2.9292184981023497 -0.21347966643013433 1.023001036407851
H -0.9509731895370542 3.795352757509885 1.8579581550555926
H -0.3428801823252856 3.8482263904682505 0.17036941168681952
H 0.8080450780274893 3.3447117104997486 1.504699948810988