32
asn_c1
O -1.2839185331848342 -0.465174960498318 -1.5664683628177112
C -1.2334755766905294 -0.6534506587481129 -0.18755748242303408
N -1.151041559513989 -2.1153289674011297 -0.0024704570675312407
C 0.009500163054962046 0.017122778824288053 0.3211657306475748
N 1.1813006081484811 -0.6306098866610584 -0.2858225683675601
C -0.03268721562953495 1.4638469188267713 -0.07943517573399868
C -1.1976921732968357 2.2034256680954787 0.4596975372939079
O -2.3569872212550007 1.7924923567241648 -0.24307193434720104
N -1.0692997677981195 3.623793861773983 0.019353187430462673
C 2.388757833777453 -0.4360273947529609 0.4451551534426865
O 2.8353240318321986 0.8487752621097339 0.5713297498275484
C 3.4810066803995627 -1.2081978922936996 -0.3003382097693794
C -2.5293476502757577 -2.579374571708908 -0.23300377663221622
H -0.6291309952353373 -1.1250204395967645 -1.9576688400231823
H -2.122935078137402 -0.26680058766410636 0.2797718469274484
H -0.8282934026828445 -2.354146160933462 0.9496476389775653
H 0.05197629165548695 -0.15079362239441704 1.4165396197083062
H 0.9737453071071895 -1.6737845256416874 -0.23469274760514847
H -0.04486396475916911 1.4549015030143522 -1.210093582678144
H 0.8861721717975091 2.0172881254996065 0.21758772689347766
H -1.3339337429853473 2.159165106815358 1.5480616654548984
H -3.1270260486489456 2.1646733964546185 0.2483286390812344
H -1.0919745522193236 4.214456173269902 0.8898998662916562
H -0.13593028353869815 3.7579271898000695 -0.4123047044020661
H 2.3094203338759445 -0.8566252381889801 1.4890841672518291
H 3.365220939458655 0.9883063054647436 1.3774522338715864
H 4.032613928618376 -1.8805681954999618 0.4128120625121426
H 3.0913618562528935 -1.7646265250814306 -1.1709541322589032
H 4.276139531537888 -0.5218887633152901 -0.6947203375517309
H -2.5729600680839435 -3.568160317078473 -0.6833573144970257
H -3.095124978564356 -2.5823601177796878 0.7312418690499857
H -3.0459168650165793 -1.8732358214346716 -0.916887873288133