35
gln_c36
C -0.3867386986096367 0.6581652696615314 0.17394443271561344
N -1.4077025956073328 -0.12873837735168628 0.6898123338740446
C 0.9315127965281497 -0.05887352524470491 -0.13269133748024306
C 1.5508678505089617 -0.7304416467209467 1.0406881087598863
C 2.8856291141279593 -1.275554661547299 0.4916856580406221
O 2.591506255578448 -2.136134074863687 -0.5599408826707248
N 3.6256258786473383 -0.10411252519303084 0.05159490499405927
C -0.7110705789185698 1.408145414323798 -1.1008255405527436
O -1.0664735249018225 0.5538402774111209 -2.1431853999910704
N -1.6214431538036653 2.4849039331321245 -0.8812176148136065
C -1.9929398795563058 -1.2035280735095886 0.03679793641848918
C -1.0385559586779813 3.506386419901042 -0.03383772868690554
O -3.2858428267140325 -0.9736307224339469 -0.44128621373208654
C -2.212373234627525 -2.2916414159373364 1.1232339566145417
H -0.11211225503401165 1.424335372060254 0.9168366770586263
H -1.560755279414019 -0.1128646649282532 1.7109889712731576
H 1.648984498243402 0.6062180141665502 -0.6131180525028447
H 0.7185884499564794 -0.8676757230680299 -0.8967314029194916
H 0.9445833923447674 -1.6024790753536546 1.3692408434200989
H 1.8121048195614897 -0.04188757733496964 1.8541632126115035
H 3.416430555665035 -1.8237303563528806 1.3191293386573524
H 3.180886445461009 -2.9450953410792033 -0.470478787550127
H 3.7315871170171877 -0.0665777576747789 -0.9804266367076689
H 4.561515046873072 -0.010003879182888944 0.5033997383515774
H 0.2594410314047292 1.8678955916081896 -1.4516949176364682
H -0.31098101144799484 0.35190220145945755 -2.7517599240946415
H -1.8906963801795096 2.9495619802040274 -1.7677132364690258
H -1.3552957986832646 -1.7290243068577338 -0.7098923535958432
H -1.5921936735688274 3.6541494877720244 0.9242559620413192
H 0.012875600155532314 3.312726470674046 0.23857385715696602
H -0.9893757541893836 4.4951117522247115 -0.5793642968897075
H -3.4351156760697523 -1.7126063790213621 -1.1177055117737695
H -1.28244179397428 -2.545895840685397 1.6209487444357025
H -2.860866451788851 -1.7639729775517372 1.8870538714970178
H -2.7591643263067334 -3.1488732827056904 0.6795212901463485