35

 C   -0.578183380622    0.752655175794    0.049614179566
 N   -1.542728619251   -0.202917961248   -0.467175982469
 C    0.582422029001    0.180007643763    0.889704846825
 C    1.549286560188   -0.740991851811    0.143589917335
 C    2.525641537482   -1.449246505185    1.076172419130
 O    3.234712678394   -0.537177164024    1.886311578654
 N    3.377947912212   -2.327630244033    0.319256043482
 C   -0.057099241414    1.618624796747   -1.113067636065
 O    0.792373525921    2.631489634102   -0.617139931201
 N   -1.093117151767    2.108999640986   -1.977529869300
 C   -2.210280022309   -1.089237409822    0.422346751537
 C   -2.161659557597    2.887723070002   -1.384444041430
 O   -1.358295338344   -2.156207233813    0.799614906663
 C   -3.470968403789   -1.639403670736   -0.231643012724
 H   -1.132029343834    1.412457482677    0.717340514943
 H   -1.226433477165   -0.674379341281   -1.289877649451
 H    0.152507988888   -0.368565056921    1.718615776285
 H    1.131803245235    1.008040363696    1.319156055876
 H    1.008157749667   -1.504177284701   -0.401046963139
 H    2.127888166676   -0.171201145733   -0.584370057497
 H    1.974561886437   -2.057732787641    1.779418854606
 H    3.637564506396    0.124999030227    1.339099134162
 H    4.044621506801   -2.764844799194    0.926137387326
 H    3.893594229504   -1.822128044800   -0.376996795418
 H    0.593027895095    1.021421604021   -1.736804417338
 H    0.326044961243    3.165399320562    0.012225916178
 H   -0.657915350042    2.629225487225   -2.713180509448
 H   -2.479449820124   -0.519912179845    1.308873098567
 H   -1.825704102480    3.737424309566   -0.785140688576
 H   -2.785149406278    3.279505524123   -2.179037422858
 H   -2.780275771910    2.251404229944   -0.766784302245
 H   -1.825890914052   -2.760411457718    1.360550850064
 H   -3.989430819390   -2.323510516032    0.435384658761
 H   -4.146481147010   -0.833679195677   -0.490958909181
 H   -3.213593791795   -2.182990990859   -1.135049282846
