35

 C   -0.142535663180   -0.171438332171    0.261713395922
 N   -1.352698371236   -0.806128971524    0.787025853050
 C    0.634914939631   -1.099566959995   -0.696157181546
 C    2.053877059371   -0.726279123553   -1.161189256377
 C    3.100654798500   -0.375742997620   -0.106502235044
 O    2.846519997973    0.873694022454    0.504312077957
 N    3.180917611473   -1.373098053256    0.936401426391
 C   -0.516800701867    1.216343848657   -0.305317276695
 O    0.498241867116    1.771271447216   -1.107065796313
 N   -0.905797360046    2.082392489812    0.775151172941
 C   -2.145393341093   -1.699938083556   -0.000303454960
 C   -1.511139098660    3.332300359943    0.357495190289
 O   -2.639678720500   -0.970127716661   -1.095981482037
 C   -3.288960384318   -2.238401920938    0.848289852245
 H    0.479629968611   -0.003834531617    1.133060466708
 H   -1.213495270942   -1.166257788006    1.704896938986
 H    0.043286642564   -1.247326486885   -1.593825747307
 H    0.685003663309   -2.066697365618   -0.202088986338
 H    2.443031571115   -1.579043931825   -1.717461222488
 H    2.011609662240    0.094960331043   -1.860647801038
 H    4.047705448675   -0.245880538163   -0.623377208669
 H    2.533339116752    0.696848879581    1.381750288808
 H    4.074441378770   -1.354443065456    1.388971475993
 H    3.034900515228   -2.297526851777    0.583508198986
 H   -1.364321368242    1.098477579550   -0.959325367391
 H    1.305503875576    1.819885802483   -0.606745627232
 H   -0.114519766034    2.268455245964    1.362406483170
 H   -1.575206376329   -2.545479107020   -0.393055884280
 H   -0.882031051398    3.930631356537   -0.298724105923
 H   -2.438128171953    3.120661358085   -0.163669350278
 H   -1.754886480981    3.920768553062    1.235405950167
 H   -2.981404730415   -1.571640786700   -1.742782357722
 H   -3.929449614719   -2.882375207264    0.252673944232
 H   -3.877966818438   -1.412487068743    1.227321687382
 H   -2.918228929724   -2.824690700673    1.684675309978
