35

 C   -0.473142621163    0.028433177856    0.770606721933
 N   -1.325781017375   -1.100310923671    1.188127362781
 C    0.821865734748   -0.404311032019    0.055648698014
 C    1.966860971752    0.613985424931    0.075902655898
 C    3.301720048614    0.017902822576   -0.343795678812
 O    4.246687890863    1.041610847346   -0.249351234145
 N    3.247475306024   -0.467394887053   -1.713204379344
 C   -1.325786201431    1.065649610950    0.007443163645
 O   -2.563319080421    1.222601238989    0.648613575937
 N   -0.645163155514    2.320155134671   -0.077093223988
 C   -1.514985091315   -2.276358495256    0.348250186840
 C   -1.297184743951    3.303108097056   -0.926441327887
 O   -2.178030671550   -3.225583270258    1.131079221684
 C   -2.290895846699   -1.989951659408   -0.928984433025
 H   -0.194910621174    0.509516510572    1.704280352288
 H   -0.999837817904   -1.441696886992    2.070672190166
 H    1.165244290660   -1.311056814627    0.552103553830
 H    0.597544161181   -0.678938113339   -0.971528211518
 H    1.754209536965    1.449753723983   -0.572292361048
 H    2.092919890743    1.005656018547    1.081558731274
 H    3.576693940893   -0.778583770465    0.354961164594
 H    5.121582994514    0.683061901282   -0.301583925911
 H    2.693629078855   -1.300072526308   -1.774958753294
 H    4.166143060517   -0.708400748819   -2.035009384618
 H   -1.489424223129    0.729396244749   -1.011265206936
 H   -2.759709681354    0.401706211924    1.086000054026
 H   -0.543681146397    2.694002721076    0.847349513482
 H   -0.575576303317   -2.753269694404    0.091321560536
 H   -2.311745979384    3.541348694760   -0.617431892856
 H   -1.327965362102    2.932489180189   -1.945128782537
 H   -0.709099709642    4.213354182746   -0.926276816780
 H   -3.012679120015   -2.862765070360    1.401369088959
 H   -2.527931791883   -2.932256635972   -1.408883692492
 H   -3.216767470823   -1.467394252813   -0.708902202506
 H   -1.721605694580   -1.391084364398   -1.628490411167
