35
gln_c27
C -0.8466463576068054 0.20343153307945377 0.4407785251231336
N -1.3395519391098178 -0.5165206155046042 -0.6916822878063417
C 0.534578002380014 -0.2274291942064896 0.8657236381024397
C 1.590375038996251 -0.057829246290244773 -0.18261531867095313
C 2.8952959211920115 -0.5600689977238054 0.4452459525362829
O 2.738748366340505 -1.910312611957499 0.7981466535694721
N 3.9810315056618295 -0.4421823603761307 -0.4711649238804916
C -0.9854965444427043 1.6901790226626188 0.3394508594670453
O -2.335185556444548 2.034598166699404 0.1798408848493511
N -0.2249481848679543 2.330937161822922 -0.6749071980018935
C -1.5184238761671827 -1.9117966179490742 -0.4108696413949113
C -0.3213779793499289 3.764883819029425 -0.49783976270785835
O -1.802322436554589 -2.630525041010257 -1.598143439507257
C -2.56309813580627 -2.26379123383796 0.589362224446267
H -1.4942836628875487 -0.0796867365669117 1.320987864079382
H -2.1751054329983943 -0.0923030179416861 -1.0983062339185132
H 0.7937545963051426 0.42137791557003956 1.7521685333026678
H 0.5001599388973905 -1.2553486795368292 1.2123735776529623
H 1.7857338341596174 0.9544101571189506 -0.5152575971974725
H 1.3650775576879128 -0.6782668443724853 -1.0829649319016847
H 3.120179627938805 -0.017747825017194956 1.3775374995396152
H 2.3871367450889016 -2.4060706607397337 0.009680731114835032
H 4.173676527845669 -1.3635390773278087 -0.9563304014943528
H 4.864967158232453 -0.2692540367557677 0.09435939127025587
H -0.6549726388692358 2.1069758902799265 1.323645594426991
H -2.6583338031544628 1.842091232009756 -0.7263672213516467
H -0.4681992334801468 2.037058797868846 -1.6478923404692354
H -0.5454606196453198 -2.3793502158112423 -0.04617022952669424
H -0.7586065349027356 3.9814394324591955 0.500493926130072
H -0.9239493142140086 4.2512542564291795 -1.2852780527122916
H 0.7086784006653357 4.2248814059198745 -0.46352009440992264
H -1.3090960967793632 -3.4859278084683094 -1.6334125173024412
H -2.788839000793455 -1.4949295425388547 1.3285661657824672
H -2.2126726811642152 -3.1731008177802242 1.1726963919559381
H -3.5128231921532613 -2.627537609236423 0.10248907877757947