35
gln_c35
C -0.5261791725029298 0.27106860663401156 0.3598787826718503
N -1.7227340016435513 -0.5616832772452893 0.5943396913652075
C 0.6509968603874018 -0.6393468323336021 0.11909383521633499
C 1.9175052185986752 0.08509355962148607 -0.11966622081258549
C 3.092317648813573 -0.8756523787413416 -0.3218177902860391
O 4.219602092784698 -0.08575624974535231 -0.5368987339203511
N 2.914639295664446 -1.7496827166784694 -1.4346466681883276
C -0.797116677820972 1.250241267474479 -0.7478096235615647
O -1.955448758235746 1.9780541177128337 -0.33896511170029037
N 0.2268186934311708 2.254334225784582 -0.8142056060496202
C -2.1171103326419765 -1.3706916756696024 -0.4928546367107198
C 0.34914777512650985 3.1142232260104348 0.3079910550037952
O -1.4531231302628063 -2.6059101581424824 -0.4704811507642238
C -3.592269905505224 -1.7490737890150534 -0.22281551020706858
H -0.3972394682288518 0.8509511426348231 1.290438573138475
H -2.5051564659861523 0.04309357775499735 0.861988673710022
H 0.35990169229642954 -1.2731273371355047 -0.7776555889132842
H 0.7133110404445058 -1.373982472612126 0.9600633113256772
H 2.182211153260185 0.67591692385246 0.7696779168926191
H 1.8551792438128805 0.7412034029490073 -1.0018545169934132
H 3.2734280671506117 -1.4816874265403892 0.5872947674773732
H 3.9504003547097013 0.7966263620896012 -0.9086756112012293
H 3.8752581591532236 -2.1243123091177267 -1.6880762853222024
H 2.3445835819781573 -2.604062260490974 -1.2053374436194098
H -0.9148700211252193 0.8027480925455799 -1.7289327602691218
H -1.9438416670451255 1.957241297041234 0.6447454431971815
H 0.18203629912668823 2.827767040024499 -1.6822999248994144
H -2.120015426937513 -0.8947014744673898 -1.4852524065424624
H -0.5970956241342487 3.415440033339163 0.7989821430235652
H 1.048167759013162 2.7146180192480363 1.0650553114674834
H 0.8138258612989637 4.111472317568777 0.016178961059267635
H -1.5425556319256744 -3.0455567829425996 -1.3769414494215995
H -4.0602810055663845 -0.8241171846474468 0.17947997106682992
H -3.6409291849686998 -2.526022971940976 0.5913683022709046
H -4.083364322519697 -2.1047259148197885 -1.1400472855087376