35
gln_c17
C -0.42486573688508994 -0.03150522946886301 -0.14839419929207992
N -0.8672038935382925 1.1135078103856209 0.5573099924887871
C 1.0672979239572538 -0.2584340004630263 0.06675515317789332
C 1.8911335322094538 0.8894978973270613 -0.4178998449158646
C 3.3635488376112552 0.7428004436423823 -0.12185367199860914
O 4.067779751219459 1.8357647211879056 -0.6085054857715682
N 3.9238099959630572 -0.47819785633397033 -0.6630399903097112
C -1.1204387015112884 -1.260473650860902 0.3656596638675072
O -0.8279027304346567 -1.506942826692014 1.715339477420357
N -0.8722384887615452 -2.4210780851579923 -0.4629638649932994
C -1.8680884943014358 1.912373374865611 -0.02815441930356864
C -1.4895602452111467 -3.6228321406990482 0.06471762871795372
O -2.4332996127627347 1.3441770823635015 -1.1676864905381463
C -3.040560625217313 2.1728363102049424 0.9366509252366548
H -0.5902093457646422 0.1127268574877216 -1.2194042476797768
H -0.2572159695652483 1.5144764344957002 1.2495978298099326
H 1.2563736809821582 -0.36535771535628847 1.1464329394061281
H 1.3706704559116707 -1.1670070871839326 -0.4453600563614333
H 1.823363794147064 1.006979755400667 -1.5429815849765118
H 1.5699070982229613 1.8758143602137518 -0.021964166475327215
H 3.5480149348189065 0.751504067586323 0.9899934850300958
H 3.5749194989028537 2.3208461212861176 -1.3231643657339704
H 4.7415208283937496 -0.7318500138169094 -0.011059020424993005
H 4.317548086328412 -0.37358482974836854 -1.6011512422251901
H -2.2537822252019195 -1.0985161082297017 0.3946992226762797
H -0.022065413661326982 -2.0842648250316427 1.7544357040764986
H -1.3577020048761859 -2.1807481278808014 -1.3884711649072943
H -1.493336283152526 2.930867256430255 -0.2886277251926385
H -1.0442756498757981 -4.490149302732477 -0.4501253394624743
H -2.5639975335575813 -3.5828217453150364 -0.2657197624057152
H -1.4508567216721082 -3.7185932966997144 1.1488759839274485
H -2.602833736957592 2.025551280632415 -1.8798474199798492
H -3.3186409152512883 1.272550660539489 1.496411621805323
H -3.8789145202371222 2.5205565779764934 0.3278724788191721
H -2.73789957027145 3.02952582964483 1.604684132561987