35

 C   -0.595995822765    0.145927037658   -0.057185251342
 N   -1.839015339259   -0.240785464134   -0.739517729170
 C    0.579793216413    0.072941533298   -1.045008807636
 C    1.973685305880    0.456897537085   -0.540080336458
 C    2.483041215538   -0.388723174013    0.622716106804
 O    2.391182502436   -1.762870561776    0.363909518327
 N    3.872492081995   -0.070299415424    0.875718679131
 C   -0.881793929516    1.552159436261    0.499611376607
 O   -0.954695078281    2.495858714356   -0.524381885628
 N    0.119146188182    2.022836076636    1.429427701553
 C   -1.943139827756   -1.547266471207   -1.372077202202
 C   -0.174924459026    1.748172368558    2.821910670389
 O   -3.237036704645   -1.653516215467   -1.890308879535
 C   -1.740840519533   -2.737551487775   -0.448260786139
 H   -0.390534886147   -0.508426882328    0.788440998428
 H   -2.598691377397   -0.188808325457   -0.085198837977
 H    0.645272536580   -0.944751648984   -1.407586430947
 H    0.342482503036    0.692419000636   -1.903217286041
 H    2.001003604228    1.499956762943   -0.255488844582
 H    2.670925115058    0.329292576772   -1.366229225666
 H    1.854311640652   -0.231951651522    1.490468604519
 H    3.072711239213   -1.980275289983   -0.260995495118
 H    4.174731745621   -0.490006588661    1.734118648530
 H    4.012146703987    0.918455843340    0.952454793937
 H   -1.853574712554    1.503689609368    1.003934801671
 H   -1.489837418637    2.125995264181   -1.216322040143
 H    0.221592566420    3.007489507660    1.284116418311
 H   -1.221813324087   -1.591056435208   -2.178965654213
 H   -0.177620580573    0.678881780298    3.001080152440
 H    0.601984799257    2.179136491655    3.441848707318
 H   -1.137426853256    2.143936204964    3.151612226769
 H   -3.393618527624   -0.902691410837   -2.448229935896
 H   -2.449547357836   -2.696933280310    0.373499790597
 H   -1.908969571852   -3.658443746917   -0.994780710790
 H   -0.734670967692   -2.755793177780   -0.045202486399
