35
gln_c7
C -0.37208690444090287 -0.22850951109135623 0.6215134530893284
N -1.4971761104636463 -1.0361449866095986 0.48993999693466594
C 0.43227198026219626 -0.15946331349395057 -0.6332159852291916
C 1.6726957367582662 0.7102199027821606 -0.5591395061801869
C 2.6112917794622375 0.217836966704939 0.5118306707861507
O 2.995070533417557 -1.1038168619981068 0.21880046529669858
N 3.8255655199287326 0.9902060639397207 0.5734147325799138
C -0.8828755522203251 1.174810247000576 0.9817230041612677
O 0.18023564976827594 2.0268398704127844 1.1696452611335393
N -1.6863058486865425 1.6035693671123177 -0.1618145222035634
C -1.5366777444110529 -2.390504935428722 0.24491832864899862
C -2.72058503813987 2.516339639631173 0.23983325797004285
O -0.7072475605965342 -3.0363687493015923 1.2154398721899864
C -1.0618872871331628 -2.7956951510469006 -1.1158980296740246
H 0.2546395721535618 -0.555531869951234 1.5022855027409223
H -2.421601133110766 -0.5284128919942915 0.46164351501459056
H -0.2414786685867237 0.17356116899159052 -1.4494870509804985
H 0.792027997302081 -1.1883459406742432 -0.8739038608160757
H 1.524351023877052 1.7698124738714929 -0.6086533492658623
H 2.2191289183647376 0.4482697394090106 -1.5362185065718819
H 2.1713533424688363 0.23965121362499825 1.5205887313979878
H 3.8906600899794412 -1.1048912798654416 -0.1828306423762564
H 4.037358885288751 1.4118432159577146 -0.3510253092942406
H 3.7836619981763278 1.7012467263803852 1.31111199628279
H -1.5424268516068877 1.1482514794266259 1.8614417826955236
H -0.10254940018397718 2.950413407209927 0.8942015417271153
H -1.031440876497015 2.101802549627551 -0.8359002327688526
H -2.578597727354597 -2.8121218772757577 0.3591933986149605
H -3.3160194719190192 2.0537838349654716 1.0553996570271684
H -2.2982150601675904 3.4585056921915114 0.6241127539593557
H -3.368939695247354 2.7068760577940587 -0.6514126625842633
H -0.08684943595690481 -3.6175350826034527 0.7425901879175244
H -1.151867404801958 -1.9800522375468808 -1.8299831165130067
H -1.7441814764737853 -3.624900734477777 -1.5242079305186589
H -0.041303779209479426 -3.241544193674755 -1.1116389919318508