35
gln_c2
C -0.21957585856615136 -0.3499668012905688 -0.11129922022962169
N -0.6220583515107859 0.7881589872607304 -0.8511884203061402
C 0.4797390095236243 -0.08811643537060321 1.1552909777446527
C 1.7483788608427377 0.6817215048064151 0.9716750465985668
C 2.813117103580973 0.04270585607631394 0.1481919949362313
O 2.4049766527709946 -0.1560940897106111 -1.1545799024158703
N 3.988919816070361 0.9245242245233756 0.09917049782778782
C -1.4344495055629136 -1.2686040101473017 0.08772267231051196
O -1.9070424827527521 -1.630106981900752 -1.1732590548491948
N -1.1186437776039924 -2.4779358327948318 0.7784356575328456
C -1.616885621993726 1.6320107364642358 -0.30485784846594166
C -2.2530995166305177 -3.388409444644474 0.570866379749172
O -1.8711346285652501 1.501252290215781 1.055212892834157
C -1.249174553907189 3.0851386690328 -0.5601059027518633
H 0.4503725132323061 -0.9602272019375689 -0.7541137247615372
H 0.1747237292056814 1.3591830289416362 -1.226005483517281
H -0.10057930545958904 0.46118502983236653 1.9403905154179026
H 0.7864067433304107 -1.0382020220830617 1.6783014660482998
H 2.20548559886932 0.9426305271042069 1.9924949965759444
H 1.5557024408107303 1.6896550900723475 0.5038054784348149
H 3.1414827992626044 -0.9389795074680213 0.5897513058590403
H 3.2142332577144948 -0.09040566556923053 -1.7669031590487112
H 4.692635121344913 0.5713878236963131 -0.5890992155047271
H 4.356761799156122 1.1233671539432983 1.0337206780358157
H -2.2614235748816958 -0.7662062059582561 0.6194853620536058
H -1.1586397057974942 -2.0453237618080644 -1.6949585804893765
H -0.28605411826915333 -2.9741913168195264 0.4266410565336515
H -2.6136989402496 1.5168994183923328 -0.8518114565050408
H -3.108222741572966 -3.194551759549059 1.1981311499522658
H -1.9265443241333537 -4.448179327903977 0.7205022464363913
H -2.6060346519798676 -3.365353598314696 -0.5030200368761075
H -2.0594699585705705 2.3858174810451755 1.4748860273531643
H -0.17154514445709815 3.271287263176605 -0.6499220297770422
H -1.7090079786188508 3.435525678476839 -1.5292583212937543
H -1.7196507046317349 3.7684032002098555 0.1916855803225788