35

 C   -0.481194234599    0.626675743453    0.400953823211
 N   -1.616497582322   -0.296483529498    0.544218253373
 C    0.767322845972    0.069801648575   -0.294764180108
 C    1.430578137624   -1.077804223376    0.465794252664
 C    2.643881412705   -1.657671330537   -0.253816210270
 O    3.134131217592   -2.791440988403    0.433027885752
 N    3.691778629835   -0.689414063403   -0.366726963563
 C   -0.988943662057    1.934491762385   -0.258076329489
 O   -2.138117686231    2.366987391750    0.401586493089
 N   -0.062589309244    3.034340810170   -0.274593986176
 C   -2.148362001652   -0.990263383758   -0.589068783015
 C    0.472688302971    3.494849969236    0.989291068661
 O   -1.313393918010   -2.081834392736   -0.928881711051
 C   -3.555059211374   -1.487368908570   -0.283488701841
 H   -0.216030465119    0.882159893506    1.421950806508
 H   -1.474719133734   -0.937875743491    1.298448838123
 H    1.491905975197    0.867164696071   -0.403546270319
 H    0.512427523455   -0.260190461651   -1.297135305033
 H    1.750123733333   -0.743599113911    1.452072196527
 H    0.716378231894   -1.879525224535    0.615909364979
 H    2.358593762734   -1.949342851802   -1.261227133560
 H    2.460292162297   -3.456931589698    0.474452057470
 H    4.467589831514   -1.084917153594   -0.862664641837
 H    4.025626682325   -0.448953924269    0.548431141202
 H   -1.215851637455    1.730604323607   -1.303345639535
 H   -2.560266440832    1.598036736388    0.765297875381
 H    0.651616939127    2.896899195292   -0.957674035374
 H   -2.184305528826   -0.298943432945   -1.423475521505
 H    1.006794421015    4.423293977964    0.823264822029
 H   -0.345816818820    3.698257554361    1.665373235855
 H    1.158481172696    2.799368021704    1.476529270944
 H   -1.677933285783   -2.542697255084   -1.672799891153
 H   -4.215159575493   -0.655980982373   -0.067964293810
 H   -3.537841256848   -2.151898793926    0.574521942321
 H   -3.964046021556   -2.037603094269   -1.126573239143
