35

 C   -0.825739511154    0.429192956192    0.782285908895
 N   -1.345532758249   -0.279581524519   -0.382133584687
 C    0.588587220217   -0.023245428346    1.182911410725
 C    1.668282732484   -0.042115010542    0.093502529285
 C    2.841708203862   -0.943193753280    0.464677403484
 O    2.444820666972   -2.299021898551    0.548521226052
 N    3.938887696613   -0.723477711773   -0.436883681264
 C   -0.943638370002    1.936859408204    0.516191285018
 O   -2.318388233710    2.280721858261    0.412052292203
 N   -0.159885662133    2.354007299606   -0.598080623966
 C   -1.408285984143   -1.719774250889   -0.339403153363
 C   -0.181376524716    3.765833975127   -0.918342504551
 O   -1.803634066011   -2.096750742870   -1.633331464821
 C   -2.376869406036   -2.289937652789    0.696401808036
 H   -1.455521164966    0.262157823604    1.656974411042
 H   -2.271649425120    0.051107761876   -0.573863746942
 H    0.916419417503    0.621150437189    1.995506477347
 H    0.513515514050   -1.015566286880    1.614077924978
 H    2.038076010867    0.956052678213   -0.088112017297
 H    1.248615919206   -0.393338670261   -0.846955472652
 H    3.188575415748   -0.713021415502    1.463327753578
 H    2.146308497146   -2.584938373486   -0.305385134133
 H    3.659356537332   -0.831246403809   -1.393897486363
 H    4.677982901303   -1.374619866047   -0.255108037596
 H   -0.595864731365    2.463563916111    1.396238221313
 H   -2.565078157328    2.319891785614   -0.501407568138
 H   -0.317697236690    1.768035346632   -1.393019812557
 H   -0.413203245375   -2.097511726343   -0.136670557930
 H    0.141035327970    4.335172686954   -0.053739570275
 H   -1.156467015614    4.148050328726   -1.219059306752
 H    0.519684031154    3.957240402635   -1.721855933276
 H   -2.013141519764   -3.020250153810   -1.643428809631
 H   -2.089252611090   -2.012796335414    1.703937482546
 H   -2.393580662943   -3.376414441573    0.651767010604
 H   -3.382582619350   -1.925559757065    0.509688644851
