35

 C   -0.639201409271    0.118093233953   -0.103267861300
 N   -1.404363408715    1.193005822756    0.518176862722
 C    0.884274323040    0.276887370203    0.047390975107
 C    1.710245584904   -0.849291193232   -0.580503307301
 C    3.197699407549   -0.523589355151   -0.674816983886
 O    3.798364441355   -1.605327642590   -1.321595772715
 N    3.880227392716   -0.303204389933    0.582315960472
 C   -1.156438939961   -1.205437301340    0.469634637052
 O   -0.829681706502   -1.197748055933    1.848092841590
 N   -2.549740634740   -1.352730349486    0.189184983591
 C   -1.552626389214    2.478201324660   -0.105914141579
 C   -3.162244491785   -2.586503892706    0.628961309480
 O   -0.353000768819    3.199322192324   -0.301218589770
 C   -2.222311570671    2.405679714797   -1.466978862000
 H   -0.885602942005    0.099738691957   -1.156310703720
 H   -1.170525067347    1.272716888367    1.487459886203
 H    1.119291533685    0.359734534843    1.104488491702
 H    1.154037976206    1.219052511868   -0.416370882371
 H    1.612799824444   -1.770375307371   -0.013118125046
 H    1.356386585530   -1.060145021209   -1.586528532011
 H    3.328355757713    0.384785356755   -1.259997736196
 H    4.737825707837   -1.495121911808   -1.250321665586
 H    3.640309945966   -1.015071910623    1.247190890083
 H    3.647159939145    0.584871917726    0.980579455100
 H   -0.643876549867   -2.033716015441   -0.007033677981
 H   -1.026591549786   -2.039642982852    2.233144591815
 H   -3.040737505210   -0.552291800818    0.532467095989
 H   -2.190164885795    3.048549230401    0.564116508591
 H   -3.163567628623   -2.732307273449    1.711567587339
 H   -4.192812340835   -2.613668633718    0.295912324233
 H   -2.651243564676   -3.430807019606    0.176544666845
 H    0.052530638780    3.369246859313    0.538082513244
 H   -1.568102485309    1.949823876180   -2.200080426219
 H   -2.449506218355    3.408142117441   -1.809112267302
 H   -3.139008135816    1.832009437422   -1.407674153889
