35
gln_c5
C -0.5146143929541942 0.06044159569386028 -0.19006385965337733
N -1.3132093297764074 1.0629425783115372 0.352693798156277
C 0.9370965684271645 0.407858808870082 -0.14089376346702456
C 1.8044250375075073 -0.7046804002079801 -0.707866809053427
C 3.2476700801139198 -0.2899047854080343 -0.6312785931235755
O 4.107056100855003 -1.2753338394179208 -1.1350324480299712
N 3.700673914863246 0.1024018181465759 0.6614747175745598
C -0.8095066813044135 -1.251894552545806 0.5366640893500318
O -0.5239353984669912 -1.0837768596611497 1.8804124385823018
N -2.2385222926741943 -1.4680937429694756 0.38368813052339806
C -1.4036482216954034 2.3458476530889554 -0.18864760411469403
C -2.629617366733438 -2.794404681531732 0.8218598040090437
O -0.1952467262533792 3.0171392629482243 -0.13116398693403405
C -1.953048788705484 2.4421177244323626 -1.5896247856282446
H -0.7334480624274489 -0.1834863864830601 -1.265006234898893
H -1.6252924327075366 0.941240092087947 1.3391586128249253
H 1.240783116856006 0.7419033350758802 0.8583282761331512
H 1.0775806343734153 1.2915667500200845 -0.8345948754682612
H 1.6898563064570127 -1.5831450943872076 -0.026496737692539386
H 1.5502101451414299 -0.9294801515948934 -1.7421252715771498
H 3.4278765655791807 0.5972439186249493 -1.3110967723691194
H 4.138368739341923 -2.0510045478864813 -0.5519749625367253
H 3.4462739906710107 -0.4797898743016673 1.4566767904979077
H 3.825999550229783 1.1078903080145517 0.8265855309877616
H -0.2811233236540231 -2.103064926574139 0.07540908373086536
H -0.26082151989623426 -1.9384228636303602 2.3113636346152817
H -2.7670194339460386 -0.7202383207393932 0.9240551535151807
H -2.1243358643463264 2.979802045595543 0.4353839211561415
H -2.0508879615055653 -3.1695446044111133 1.6727626685719845
H -3.7028503936793706 -2.765266821680552 1.1038493390589974
H -2.586717800677936 -3.504745493960893 -0.05490087538020766
H -0.14544952944402556 3.6053874623084345 0.6799240723306154
H -1.1928188417186179 2.251797685267218 -2.375366525719176
H -2.260590884540927 3.5029973068574614 -1.734928160512856
H -2.8811655033042767 1.8376996020535534 -1.7092277954533335