35
gln_c22
C -0.2870909228300991 -0.1520882074149683 -0.6388549564081757
N -1.0546085845202204 0.9660818782084074 -1.1133463378128488
C 1.08657156710785 0.2479420206334133 -0.2718113591953852
C 1.9806476732863882 -0.800189724345325 0.2685993942984218
C 3.394553521863933 -0.3740244591045762 0.5029928953413648
O 3.9911326689974906 0.04745967209602268 -0.7196084542887626
N 3.531954224974437 0.7801409349383253 1.3935361039753735
C -1.0781166468103063 -1.0375537980161487 0.22558688973986288
O -0.39452967037914477 -2.139552078709472 0.7239212326225603
N -2.1401480935833908 -1.6490285335609447 -0.6424297104305565
C -1.2560182621955487 1.987780708709411 -0.12183332828102027
C -2.836375225160671 -2.6807557588632567 0.08199005043676058
O -0.29382864411229215 2.9834077678566886 -0.3027237800858783
C -2.655563674956622 2.5575759593343954 -0.09467489217260397
H -0.12752755769915655 -0.7553872429022235 -1.6465445582508016
H -0.7753751327569243 1.3305846863516984 -2.0339154940460364
H 1.1124065034776964 1.1614639102252207 0.36013924599344027
H 1.5521927689538961 0.6196062527444108 -1.2495059315194412
H 1.9304257872600472 -1.7158295899076466 -0.3208568632713754
H 1.582842587806317 -1.1059315402632048 1.2937849315990615
H 4.057294395674935 -1.162059760604912 0.9097226822699919
H 3.8563108853797647 -0.6702647932728996 -1.385721805011966
H 3.179178602840901 1.6628428424828312 0.9657521844376531
H 4.584629300723145 0.9536363784920354 1.4572902452619054
H -1.6330976163212907 -0.5763017016541162 1.0517979793960635
H -0.19509475429384557 -2.8161572894756683 -0.004391366399505488
H -1.6360980472118516 -2.0677374548094445 -1.480799304938825
H -1.0816957442945347 1.4930775734460744 0.8812991873229669
H -3.6429932533480147 -3.0647326982776146 -0.596561774621663
H -3.322698565960787 -2.297191467793032 0.9876462914884745
H -2.1633931867120726 -3.5246927716099234 0.35360198589018765
H -0.1931915736803969 3.579455261950298 0.4830633464664475
H -3.1555230854674505 2.4037867395163084 0.8997710285495168
H -3.321306634154823 2.1424475976846913 -0.859619517136052
H -2.5958656118971577 3.672188685915086 -0.23452633026266334