35

 C   -0.598038647137    0.191287312024    0.604872496323
 N   -1.288954739064   -0.550684672857   -0.451530679232
 C    0.574342755457   -0.554455704520    1.284643845400
 C    1.462576764557   -1.458383539318    0.416319924187
 C    2.292804829032   -0.813299800424   -0.692795314178
 O    2.965711990813   -1.810232729896   -1.428850933420
 N    3.154862285395    0.206797953839   -0.169231318153
 C   -0.207090688905    1.583064269106    0.070883852969
 O   -1.284669901732    2.146733089407   -0.632562804333
 N    0.167630985710    2.434454373301    1.157979850602
 C   -2.191179722428   -1.597878889559   -0.016559981464
 C    0.823089984400    3.668492483443    0.761038055242
 O   -3.295252981761   -1.031592594471    0.622741732702
 C   -2.611277421048   -2.445278038097   -1.208578923688
 H   -1.347287601300    0.374659495015    1.365648353449
 H   -0.644862138973   -0.908290588473   -1.128381304863
 H    1.182105217072    0.183146130937    1.790496969719
 H    0.159036738371   -1.193033696478    2.059599084479
 H    2.159295714988   -1.964601195978    1.086618601761
 H    0.876708790356   -2.250050755321   -0.040299939254
 H    1.654758731560   -0.346935488941   -1.430323532731
 H    3.502838203607   -2.329829904170   -0.844501081224
 H    3.758636556763    0.557869640272   -0.886972795442
 H    3.727907289915   -0.133638730570    0.579600815353
 H    0.652254613830    1.505426212524   -0.586085098141
 H   -1.716459856715    1.440258386033   -1.097732432008
 H   -0.656645254324    2.645456393479    1.687957188804
 H   -1.745639845655   -2.238343663920    0.738838880063
 H    0.232576260704    4.277726290527    0.080187269554
 H    1.040887389897    4.253373349760    1.647548084012
 H    1.766248867320    3.430398574526    0.283141563305
 H   -3.661392755449   -0.366234887668    0.053052833341
 H   -1.762483508689   -2.960429654279   -1.649060253052
 H   -3.064884490715   -1.821157626511   -1.972967522092
 H   -3.334703266385   -3.186710857022   -0.892124823253
