35

 C   -0.623300052616    0.076994643845    0.521447165870
 N   -1.033241323725   -0.390723304768   -0.793419009582
 C    0.864554690429    0.439608137060    0.534319108295
 C    1.793885391871   -0.776473713888    0.549701793098
 C    3.269388204540   -0.406461746228    0.522863962366
 O    3.497432422163    0.277313101210   -0.688847746794
 N    4.078271586020   -1.584197880024    0.685955933666
 C   -1.512837759287    1.267432974938    0.957739261699
 O   -1.315313156778    1.511148112781    2.329060895384
 N   -1.294666307233    2.525331566241    0.312683400370
 C   -2.044601424187   -1.404762930910   -0.867431371026
 C   -1.746345993825    2.698946470164   -1.052873458910
 O   -2.632601618762   -1.282744272317   -2.134799821033
 C   -1.523802088097   -2.828619899387   -0.664158017251
 H   -0.774391413432   -0.708764387512    1.269356985467
 H   -0.262974736381   -0.611700486461   -1.389904373958
 H    1.058890368131    1.038145658762    1.418868240788
 H    1.090316844417    1.057133579725   -0.327658954447
 H    1.619109726599   -1.369668128921    1.441050385989
 H    1.601635938356   -1.421158099531   -0.304988429688
 H    3.494400754805    0.252677560350    1.356901849471
 H    4.366323119116    0.654634070026   -0.688415756577
 H    5.050882163295   -1.356100859099    0.764838153110
 H    3.973765416702   -2.189423336304   -0.106591492507
 H   -2.548818471281    0.994921293213    0.771287944648
 H   -1.484513840762    0.719562855364    2.820336237759
 H   -0.356756703911    2.842746716877    0.445856247655
 H   -2.781051776332   -1.186136581251   -0.098261291553
 H   -2.776392454507    2.372225821756   -1.133697204407
 H   -1.715209351560    3.756964399056   -1.291474611970
 H   -1.174360053985    2.155251841772   -1.797843167474
 H   -3.237877914484   -1.997946350762   -2.274182060703
 H   -0.808354792418   -3.074216892632   -1.443129956838
 H   -2.332871562750   -3.554236843014   -0.706461024927
 H   -1.037636333483   -2.935528692611    0.299592803954
