35
gln_c29
C -0.43477140814153803 0.7035360276101067 0.06875499200510965
N -1.288713945176713 -0.29904930103759264 -0.44760507307463987
C 0.6996038111850169 0.07651993409380427 0.8329557635796633
C 1.56061153386318 -0.8404905555221563 0.01337587514236297
C 2.6362792664219024 -1.3762747525113554 0.967510378754926
O 3.3330663484383747 -0.2577780488328795 1.4348677672487298
N 3.5166511978827324 -2.2653266853748772 0.22134654774644769
C 0.18004023054637114 1.5562580161220496 -1.0442535195829628
O 1.0181816452262133 2.5208603498294244 -0.4862172782021232
N -0.9414506694422898 2.184533245602328 -1.7255572046720025
C -1.9844044864614157 -1.1312392184031275 0.45663233941136844
C -1.6638489801392335 3.0495928258080767 -0.8449953254041958
O -1.2178323920275296 -2.1061141043501377 1.099456281791816
C -3.1225086866454834 -1.826889497894996 -0.30263296052187116
H -0.9459965571106682 1.3973546339005365 0.7799943160005588
H -0.9929419237678747 -0.7898773037869814 -1.2885358317831275
H 0.3109764325374802 -0.5059107405362101 1.700738475419129
H 1.375504840568378 0.8619389199287301 1.259375782342127
H 0.9989242409394472 -1.6766299076324422 -0.4227780080229247
H 2.0944498006608954 -0.29284465145675037 -0.7962516662925802
H 2.177338711845592 -1.8840820304220316 1.8215766100907542
H 3.740307149557412 0.24727834542066973 0.682823055972714
H 4.133372605133916 -2.725074961832502 0.9231813210078628
H 4.066216898691285 -1.732999198403935 -0.48321227118104637
H 0.7720410447774178 0.9258135530939471 -1.703814455700613
H 0.7698483174027781 2.7092933757752706 0.44454825035270523
H -0.6577839520797854 2.632035754505209 -2.610762639929571
H -2.4697666766786632 -0.5573108915627252 1.2879520079471611
H -0.9834819598095952 3.6248426031432093 -0.17722163946774444
H -2.268956460666121 3.75097452799081 -1.4862479478298096
H -2.3803000533710925 2.4784454363749298 -0.20903225665698186
H -1.8424615504331423 -2.5184106278748883 1.7779102168735652
H -4.110489081311205 -1.596869389449811 0.15021802946654694
H -3.1226668045925687 -1.4336662525486537 -1.3328316180761572
H -2.955038487823358 -2.9024394297650384 -0.2635484288827153