35
gln_c25
C -0.1664400121037498 -0.00693450367836705 0.12006645283628377
N -0.7940781093182915 -0.9617320191002546 -0.7639050521393523
C 0.8313925286085653 0.7917897639376485 -0.687493801819459
C 1.9288135168965843 0.012562454443102675 -1.2931981345077794
C 2.8220193097496633 -0.6893896593366236 -0.3260468062531196
O 2.1715307470500584 -1.6073753178904808 0.47857136665993316
N 3.6018011602378595 0.2460654261162535 0.4571581391552529
C -1.2068007773474494 0.9704616087161854 0.6066828839623996
O -0.5794648989798005 1.8212247674143525 1.597697234742193
N -1.565674609760654 1.9214512621339803 -0.4316339774250225
C -1.9728826542209739 -1.554000753635721 -0.1841299453244408
C -1.465709507992649 3.2927060577724108 -0.054067321730758525
O -2.4183126891389914 -2.557667066439909 -1.0816605597802977
C -1.6884611052586804 -2.3076148732533945 1.0983060820710993
H 0.26690075758224463 -0.46777310391598653 1.003784713960121
H -0.15788877371723395 -1.747880247631509 -1.015284378612888
H 0.23786847945286882 1.2524577107662442 -1.5241509555686963
H 1.21855850742225 1.6082328369582612 -0.0998172529757982
H 1.598935614867933 -0.7220005583578383 -2.0635832359363855
H 2.5722389814091517 0.7490228250788072 -1.8445158506446198
H 3.5668220591175785 -1.2778690559902495 -0.9038277772674801
H 2.4170675259441707 -2.553625711844622 0.25707976562684415
H 3.0936079655482396 0.46929663575108077 1.3313028733400158
H 4.513429938961678 -0.181920912669789 0.721144782328488
H -2.098419999722943 0.5557631541771659 1.0525265014345349
H -0.19083951304608626 1.2099559569787586 2.2770709904506954
H -2.231611097280795 1.6424885877136506 -1.115681401537732
H -2.8321916795330293 -0.8956444221230985 -0.055104777026933165
H -1.2743975409418244 3.9185231482021363 -0.9236110555387314
H -2.450117800152674 3.6221511263344115 0.40661702152190926
H -0.648570808640665 3.4623813293480703 0.6838894130334328
H -2.0614639721482813 -2.420145966805564 -1.9954703619284024
H -0.7529125444754597 -2.862848512348637 1.0528814847201478
H -2.492194726067989 -3.0734188594004888 1.2093255698731638
H -1.7925542730004929 -1.6586931074199722 2.0090773703013993