35
gln_c14
C 0.5917033783810841 0.2692315144601166 0.4638775223426276
N 1.0532775593306172 1.281977955907276 -0.5003396298085988
C -0.8120450258177081 -0.028352098628616176 0.02672781414663619
C -1.5569438212990796 -0.9983262005658682 0.9005811928801538
C -2.969977007288103 -1.2217444601825918 0.37882087181072527
O -3.0210750643987954 -1.7570836021703171 -0.8748481168864505
N -3.736038167752386 -1.9231402205428374 1.3829229752564403
C 1.5189682303010064 -0.9305857893394243 0.38651056145964424
O 1.147729602193958 -1.9428229402028703 1.2037220305463525
N 1.8663198041452636 -1.269222318191055 -0.9728427946457383
C 0.29246367168553195 2.488007675694248 -0.37592064433733785
C 3.246346079014978 -1.6857309291668243 -0.9934680120758131
O -0.46395408300005003 2.7174734777040785 -1.4942268650533903
C 1.1088330385467036 3.7097450076877103 -0.004144314250908205
H 0.64244016009763 0.6759652123764427 1.4714861746978658
H 2.0800733952512456 1.3765035564289494 -0.5315357938637832
H -1.4790513012736108 0.8642763911709339 -0.06429370047916913
H -0.8050480036250897 -0.42236299961519563 -1.0425230941884205
H -1.0518566458810237 -1.959634082024658 0.9995210470109357
H -1.6547136760266612 -0.5381717150199553 1.9298607340564589
H -3.484071901780528 -0.20948076003042987 0.29702822854931216
H -3.1617479637659223 -1.07076494064255 -1.575187057098129
H -4.748534540633717 -1.8997539409964472 1.1971552473932405
H -3.3407083884427764 -2.8881330477814355 1.5091429316932146
H 2.5024364931014116 -0.5370674215722264 0.8365575500877458
H 1.1810512360615855 -2.848400792267245 0.7963040432720438
H 1.2244492933406028 -1.9374493218129167 -1.4430610749827129
H -0.4286502141847814 2.3971891543358197 0.49933200930913535
H 3.7387850367918536 -1.5114600587681448 -1.9579219955813683
H 3.8011650395809244 -1.1455320164538245 -0.1850114991890254
H 3.351066285389544 -2.7631628262104404 -0.6953096837890327
H -0.4402197438060677 3.6257854190309526 -1.8339710610278803
H 1.6261742423395247 4.149093628164427 -0.8872613516605672
H 0.38357018747121585 4.4824679109120735 0.35858809486845966
H 1.7977828159515903 3.4506655783129485 0.7937276595374209