35
gln_c23
C -0.5477459054745736 -0.0009369259182087587 -0.41726737952796195
N -1.5153763739711903 0.7312216987386198 0.2975945743450861
C 0.8310500499030337 0.3805080658201483 0.03074566350119479
C 1.9563194922429108 -0.33065574875515436 -0.6525020391527838
C 3.2512096309926353 0.2723117551171434 -0.043671106960273647
O 3.2672914234792216 1.6216001586236175 -0.2764134161459601
N 3.3380978233751053 -0.17463684675856966 1.2893261851670794
C -0.7523748501018863 -1.4936360411187826 -0.27714682795215684
O 0.1434237392992685 -2.167265598776379 -1.0774561240388782
N -2.0850231147284237 -1.9312429861040283 -0.5869448483375636
C -1.7444924296077626 2.083556160115322 0.1940753766911598
C -2.305353348527426 -3.168207203621685 0.18044684342527767
O -2.914630114827216 2.48378603651537 0.8972653152979235
C -0.7124070836533967 3.0926843227144474 0.579280185116278
H -0.5886210909344406 0.2394521902350141 -1.5179003122353125
H -2.1623879073745873 0.16905806663328674 0.9012143817560154
H 0.9433267646210203 0.14197310111849168 1.1385401774756234
H 1.0267671072998095 1.4779717539079968 -0.004208583937055304
H 1.9442831632679924 -0.24584188869459953 -1.7297492763348208
H 1.9372101037250424 -1.410057533836783 -0.3303853998646903
H 4.068469483075219 -0.2362796440303757 -0.6244681359776044
H 2.779735308319122 1.798210043584158 -1.1162709758432923
H 4.285190925620968 -0.3818063229978101 1.6633997935892375
H 2.622894056153264 -0.8732889694566619 1.5801371350099849
H -0.5227309842897228 -1.806903279489975 0.7854364845753583
H -0.32113343825342605 -2.6110444163934963 -1.840097602629442
H -2.1353754727157273 -2.2443930429815215 -1.588971742803137
H -2.0151215896330097 2.346708962362849 -0.8884570183252823
H -3.259472122647006 -3.642719891228256 -0.10259493224184454
H -1.5058199901490659 -3.9209356213717377 -0.06687686543463496
H -2.231975331096967 -2.994410057106069 1.2646819804846674
H -3.675256885463311 2.494112584528061 0.3046632442245896
H -0.01977441918207002 3.3905727146232967 -0.23629029643334218
H -1.2579993133238574 4.073981483932489 0.7995576603563461
H -0.12219730541957026 2.8365529200698587 1.4713078831603168