30

 C    0.108050692846   -0.753066256481    0.404058993583
 C    1.589672882208   -0.880517608811    0.040541569479
 O    2.174081286766   -1.880351347134    0.828850930786
 N    2.331603513777    0.356147854143    0.230880840021
 N   -0.603986514152    0.254035812286   -0.388751802209
 C   -1.742828791916   -0.377281259662   -1.062106239439
 C   -2.048845676104   -1.635797010988   -0.252988389418
 C   -0.650415269965   -2.077223569478    0.176438728702
 C   -0.864931038533    1.516879598546    0.280199301276
 O   -1.234185909891    2.476975437740   -0.667414902802
 C   -1.967811390572    1.523164818464    1.334287591905
 C    2.527127490909    1.156992368618   -0.965392418398
 H    0.072488654146   -0.487330729196    1.460491579332
 H    1.674939924470   -1.234683072865   -0.983530408876
 H    2.029165413222   -1.675644442855    1.744383016451
 H    3.230165387085    0.095144132635    0.586418083446
 H   -1.458628181644   -0.649895748165   -2.075661033904
 H   -2.572405581479    0.310601293730   -1.140815285277
 H   -2.576436629092   -2.391836047578   -0.824287868423
 H   -2.655468504784   -1.390314389467    0.613829058812
 H   -0.177440961952   -2.640634052929   -0.622575748968
 H   -0.644536731067   -2.708813400844    1.055818408026
 H    0.068186251867    1.798211509859    0.753723462868
 H   -0.600334572024    2.457350937464   -1.371811993074
 H   -2.038563819876    2.512789048945    1.770975258915
 H   -1.755843854275    0.816208086140    2.129106825200
 H   -2.930625038347    1.282357132257    0.899668400850
 H    3.130385829582    2.022427899070   -0.717248565957
 H    3.023009088849    0.612415805276   -1.771268606310
 H    1.576608367368    1.504611685797   -1.340465767710
