30

 C   -0.252192516678   -0.377657610052   -0.624258895289
 C   -1.511457312798   -0.396992054685    0.271039641696
 O   -2.611877217039   -0.987102882090   -0.384754689566
 N   -1.814789409984    0.897295705258    0.831114682156
 N    0.943182401735   -0.153525227971    0.199689847345
 C    1.724900139680   -1.394943647566    0.284161126135
 C    0.814315292237   -2.490955989277   -0.262437391565
 C   -0.007190974819   -1.735817373161   -1.303644795766
 C    1.787555469431    1.002540329084   -0.013826784422
 O    2.678020345359    1.087675851970    1.064785550421
 C    1.043482998778    2.320290309562   -0.170251347765
 C   -2.521734478774    1.832444299626   -0.023876393339
 H   -0.364989395959    0.398783406658   -1.372707009534
 H   -1.306253870456   -1.051190660602    1.104402521971
 H   -2.772257779548   -0.553669529339   -1.212243582570
 H   -2.341706405941    0.768198706945    1.671310778463
 H    2.048447182340   -1.583644678608    1.299751773640
 H    2.623857649583   -1.319145071334   -0.326743494991
 H    1.375323259478   -3.320345573921   -0.677788388918
 H    0.171624760851   -2.889972373583    0.515924927840
 H   -0.917510305701   -2.241821937205   -1.590439608097
 H    0.591803860916   -1.583611385947   -2.197870310399
 H    2.435186074983    0.859037695532   -0.879150041504
 H    2.158872829162    1.095994470338    1.860018610687
 H    0.355701783873    2.470317322478    0.651742704390
 H    0.488725731033    2.376594733570   -1.099431116558
 H    1.778172389480    3.117037777299   -0.175010763862
 H   -3.514972552665    1.496750901397   -0.318776971032
 H   -1.951534219005    2.033438018379   -0.923080008762
 H   -2.629552038221    2.774341317949    0.500562052441
