30
pro_c10
C 0.1541082671100933 -0.5986847070132935 0.6757732182379195
C 1.0275284205169515 0.5146328848296493 1.081581508553728
O 2.1834389193596286 -0.048914332546259334 1.6912616988402116
N 1.4660296697303459 1.4446668411693964 0.12308569948999525
N -1.0511090603775892 -0.3484855844189809 0.03523935016866059
C -1.4712155242781824 -1.4670701429852073 -0.7230727689507165
C -0.3986096155669077 -2.5462906423020795 -0.5167633722846658
C 0.8217036557864519 -1.702027987620817 -0.11993498748325314
C -1.48742527454891 0.8974617138794663 -0.3809184455849826
O -2.7076708262979894 0.8671335803656665 -1.094092587932718
C -1.719615563119614 1.8417528050537946 0.783167144065153
C 2.296972084560051 1.0287684961769328 -0.9340863281466175
H -0.11857175162083401 -1.1365074038958705 1.6639622004632428
H 0.5219667253793027 1.017956166884985 1.9645522169242817
H 2.5742682780989994 -0.7682786670550821 1.1210302882959173
H 1.9742884610957425 2.2180448073293038 0.6461268276703799
H -2.4487658996209345 -1.8523776711515214 -0.32662220621738425
H -1.5777622384959018 -1.227129415706543 -1.7853503120819822
H -0.20647502124864764 -3.082531142921063 -1.4700353964851631
H -0.6580959911705297 -3.227923007993951 0.3133063460676029
H 1.355132441538701 -1.368918040958312 -1.005463547818256
H 1.4317609090589887 -2.3713333453019647 0.5449048172048062
H -0.7991602670073622 1.45785726181405 -1.0620495550277993
H -3.455407743806449 1.1887820974554384 -0.5299633746167165
H -0.9181895270426456 2.597049805879528 0.8799682809638544
H -1.8213311886286965 1.2806888398871004 1.7294038240900933
H -2.6622876914691695 2.4439451901158735 0.6267183614209848
H 2.999144545842877 0.27047622579711744 -0.5929027261255204
H 2.943214149598831 1.9057509850515815 -1.2693093728033293
H 1.752136656622116 0.7715043901815711 -1.8868657149485415