30
pro_c2
C 0.2384544858417863 0.45261151090871504 -0.6906123624114044
C 1.5023479264271256 -0.23067049198337444 -0.3319070129646824
O 2.567651422517002 0.32500117493834474 -1.081430446220893
N 1.8851959688171067 -0.1514792400538381 1.04892074008561
N -0.9415613060714586 0.019053824580633996 -0.021686286480684738
C -1.9224621922299263 0.9526680788598909 -0.6036524549767477
C -1.1940968802844891 2.275257604215756 -0.49859247498883996
C 0.276994043125753 1.9190840989709506 -0.23387937370050033
C -1.4071392461762637 -1.2905832990378299 -0.30531978624275324
O -0.5377228020940563 -2.3230012663957815 -0.05475555836447788
C -2.673807859629742 -1.5172499918209374 0.5271512886177114
C 3.0932365675819034 -0.9852006295740939 1.1824286557544834
H 0.11641479571826538 0.46807072259508004 -1.79358551371265
H 1.4640098879542638 -1.3021173403131545 -0.6141285009183266
H 2.9176723543389778 1.088091815847862 -0.5523707115786475
H 2.098007245734835 0.8280151993673394 1.3518828153613047
H -2.024643510774596 0.6988076529795992 -1.6997287350006514
H -2.878960299498339 0.9443686373457988 -0.08568898710836849
H -1.6281048272119512 2.7883945789385054 0.39529814386693624
H -1.2748499393347923 2.8769251145237047 -1.4106404672106128
H 0.9649796718641606 2.530009636073415 -0.8122195478564711
H 0.4519252571892054 1.8989258555964459 0.8520188171871764
H -1.7256876718660354 -1.3991408400298304 -1.3793108213928353
H -0.4919703119369777 -2.5233936512505735 0.9261240090172809
H -2.509482352736147 -2.3712363433951364 1.2446511263645665
H -3.5491657572773994 -1.7482164785389716 -0.10475063724658948
H -2.9203923587579212 -0.653072746916242 1.1674197571677605
H 2.8869616646081044 -1.9039827330244168 0.5663039900196067
H 3.2845824597913453 -1.2655407322999743 2.2285665292305135
H 3.9316135643701635 -0.4003997211079808 0.7834938057031906