30

 C    0.276935642249   -0.206911506428    0.589008242187
 C    1.387829530755    0.380817580749   -0.304160330323
 O    1.000462685304    1.550152035610   -0.975307219634
 N    2.588706555107    0.540672302614    0.471694229008
 N   -0.987497941527   -0.371988034597   -0.141946871529
 C   -1.309529413213   -1.794799221543   -0.238102877249
 C    0.003416166807   -2.519867332678    0.022915525247
 C    0.649553876095   -1.619692955233    1.073165073076
 C   -2.121731692681    0.428010000795    0.285122615597
 O   -3.225304687388    0.166373148227   -0.533387799578
 C   -1.897345930622    1.926073388684    0.190972353463
 C    3.754453793553    0.977660962723   -0.274799517220
 H    0.144378291911    0.457614722959    1.442437077956
 H    1.599645452070   -0.319755759292   -1.100045027875
 H    0.775685159006    2.224078788183   -0.349170631885
 H    2.426376789422    1.150181550504    1.251100187578
 H   -2.033320565233   -2.090840493357    0.529974498536
 H   -1.740909338445   -2.027469714884   -1.203620008611
 H   -0.146391003146   -3.538790303910    0.361238171701
 H    0.604501889994   -2.556402005953   -0.879819011195
 H    0.192531578039   -1.807031701334    2.041132775054
 H    1.716433517317   -1.751766535492    1.176979486794
 H   -2.386728233558    0.172183269186    1.319032871090
 H   -3.588672709589   -0.683589712788   -0.332712590438
 H   -2.820102573354    2.428547203425    0.454415559908
 H   -1.625004242465    2.190107879936   -0.821542575201
 H   -1.128286402870    2.267376907924    0.874899845050
 H    3.626943618151    1.937389580714   -0.769279320312
 H    3.988597291079    0.239580388448   -1.033850316332
 H    4.602722088827    1.040550285181    0.397069024207
