30

 C    0.363884004223   -0.674191002404    0.356552225802
 C    1.385275605092   -0.414896840913   -0.751765310697
 O    2.229701520706   -1.540170229315   -0.860963823304
 N    2.097985351283    0.824691494278   -0.598005562963
 N   -0.575299290800    0.406695456189    0.665487974310
 C   -1.575939765464   -0.250596039124    1.502711749503
 C   -1.750202343413   -1.691558880429    0.967061078218
 C   -0.491446971725   -1.933708629041    0.110600890315
 C   -1.069398890610    1.199570595905   -0.435534313924
 O   -1.871512602986    0.489806610458   -1.360446196404
 C   -1.787592805330    2.454058478551    0.046820233575
 C    2.804951044188    1.054768650882    0.647781096697
 H    0.927968909152   -0.841203264379    1.274940020561
 H    0.882263334379   -0.374820784507   -1.706844824094
 H    2.654136185524   -1.709145136988   -0.030497766829
 H    2.726435299529    0.918405958506   -1.371273450394
 H   -1.202224195288   -0.279008449685    2.521972111680
 H   -2.503056059994    0.305580625420    1.529525943783
 H   -2.648704102310   -1.784890744398    0.367487643112
 H   -1.837986985326   -2.401742508631    1.782156043744
 H    0.035817543251   -2.838661881427    0.385387376152
 H   -0.748349856590   -2.009254228456   -0.937947341194
 H   -0.210516765089    1.510392596019   -1.001173350481
 H   -2.746723057579    0.378389856895   -1.014769559570
 H   -2.711859016213    2.228387133387    0.570967764385
 H   -1.149256170583    3.016299983896    0.716826478566
 H   -2.036581999274    3.074138367428   -0.807070620951
 H    3.507085107870    0.264411860861    0.922170822874
 H    3.371183522740    1.973783196104    0.557682257785
 H    2.096991261924    1.184389231756    1.455225353771
