30
pro_c15
C 0.28630061363279885 0.17460006988129978 -0.15111587142300767
C 1.3105270467034198 -0.13827956414457557 0.9141867613971772
O 1.3469616692337776 0.9956036787243089 1.748784798035951
N 2.6111620479109323 -0.29879279316392676 0.3591641078460218
N -1.0174670499669232 0.41838049450004094 0.3873270376131452
C -1.6541279105712574 1.2370556761917093 -0.6266608313024797
C -0.6256721895994434 2.3736959773598767 -0.6923356606399023
C 0.6584354545317729 1.5749159441890892 -0.666420385390187
C -1.811714337282408 -0.6946572981428546 0.7206360883089189
O -1.2802863284905917 -1.4484468867564326 1.7546533944913763
C -2.1869302712516303 -1.6022211753410698 -0.42281965207747096
C 2.7918643596130166 -1.3843282554413143 -0.5466937787746977
H 0.328863987437344 -0.5470239738272 -0.9594696630909381
H 1.002014606722212 -1.0373238139025767 1.4978204256371381
H 1.7496831502524515 0.7926968436202334 2.6081254861359957
H 3.015864878694462 0.5836527243438246 -0.00052111865707552
H -2.6406340633342626 1.6004864801480172 -0.28269800650253435
H -1.7207507865716303 0.7081494618371866 -1.5896498508553334
H -0.7569020019514838 2.9707586446618004 0.2324202158574956
H -0.759801390332392 2.9875980303820717 -1.5817490800584149
H 1.1335910091515082 1.5255641946121672 -1.6674392140089482
H 1.3447423946027262 2.099112002876724 0.0053111435790250995
H -2.7887218875987503 -0.28303106814001355 1.1153122765785577
H -2.044143776026473 -1.8960091766847675 2.2098413774406236
H -2.7458870723456603 -1.0831540866375298 -1.2177012960907
H -1.3099062090980478 -2.178268198321098 -0.7957001503297244
H -2.8766582019962836 -2.380700361969172 -0.006934431730028432
H 1.8454701059830654 -1.843641670667316 -0.8592221108683038
H 3.3616687675922194 -1.0861502979695177 -1.451613736025323
H 3.4324533843556027 -2.1402416022190445 -0.03483827509636085