30

 C    0.281985858415    0.589826724014   -0.371333170863
 C    1.320850157568    0.835967602400    0.732006143583
 O    2.299103205949    1.681252451729    0.201649356760
 N    1.960848711762   -0.331899044398    1.297588984998
 N   -0.814146323199   -0.239998312181    0.163988327126
 C   -2.060944400945    0.536016653424    0.191878765880
 C   -1.614444242519    1.990741049335    0.082878034991
 C   -0.392421208276    1.890433477505   -0.829797838711
 C   -0.917759502013   -1.557377631664   -0.379363903517
 O   -1.278145830486   -1.478993543031   -1.746642936258
 C   -1.909295442204   -2.424108075195    0.387161829117
 C    2.786516791270   -1.139579497076    0.418310583475
 H    0.764454532263    0.098491065027   -1.206399367501
 H    0.813047631941    1.321467402627    1.561876301859
 H    2.956251079374    1.821592067198    0.871075572638
 H    1.279319730229   -0.887011248453    1.773882409315
 H   -2.697432031207    0.282032473354   -0.650408331191
 H   -2.615022972595    0.339919522228    1.103441291168
 H   -1.337573102443    2.379868546619    1.057950211039
 H   -2.395153389581    2.629821361100   -0.314033691836
 H    0.269196742348    2.743607119804   -0.773585674472
 H   -0.716280932217    1.780709025406   -1.859877657763
 H    0.062567829304   -2.014669024711   -0.308320768639
 H   -1.304100862917   -2.347399577640   -2.124655642418
 H   -1.898672207917   -3.438963494942   -0.001535931155
 H   -2.918892201853   -2.043644560292    0.290877943805
 H   -1.646982069240   -2.461727422456    1.438355704304
 H    2.261340967893   -1.593082283242   -0.421192634507
 H    3.234301197218   -1.936091893127    1.001754195728
 H    3.586312995235   -0.534553913000    0.014004466607
